
---------- Begin Simulation Statistics ----------
final_tick                                  761720000                       # Number of ticks from beginning of simulation (restored from checkpoints and never reset)
host_inst_rate                                 300925                       # Simulator instruction rate (inst/s)
host_mem_usage                                 653256                       # Number of bytes of host memory used
host_op_rate                                   403004                       # Simulator op (including micro ops) rate (op/s)
host_seconds                                     3.40                       # Real time elapsed on the host
host_tick_rate                              224065865                       # Simulator tick rate (ticks/s)
sim_freq                                 1000000000000                       # Frequency of simulated ticks
sim_insts                                     1022977                       # Number of instructions simulated
sim_ops                                       1370020                       # Number of ops (including micro ops) simulated
sim_seconds                                  0.000762                       # Number of seconds simulated
sim_ticks                                   761720000                       # Number of ticks simulated
system.cpu.committedInsts                     1022977                       # Number of instructions committed
system.cpu.committedOps                       1370020                       # Number of ops (including micro ops) committed
system.cpu.cpi                               1.489222                       # CPI: cycles per instruction
system.cpu.discardedOps                         19957                       # Number of ops (including micro ops) which were discarded before commit
system.cpu.idleCycles                           63101                       # Total number of cycles that the object has spent stopped
system.cpu.ipc                               0.671491                       # IPC: instructions per cycle
system.cpu.numCycles                          1523440                       # number of cpu cycles simulated
system.cpu.numFetchSuspends                         0                       # Number of times Execute suspended instruction fetching
system.cpu.numWorkItemsCompleted                    0                       # number of work items this cpu completed
system.cpu.numWorkItemsStarted                      0                       # number of work items this cpu started
system.cpu.op_class_0::No_OpClass                   0      0.00%      0.00% # Class of committed instruction
system.cpu.op_class_0::IntAlu                  875518     63.91%     63.91% # Class of committed instruction
system.cpu.op_class_0::IntMult                    144      0.01%     63.92% # Class of committed instruction
system.cpu.op_class_0::IntDiv                       0      0.00%     63.92% # Class of committed instruction
system.cpu.op_class_0::FloatAdd                     0      0.00%     63.92% # Class of committed instruction
system.cpu.op_class_0::FloatCmp                     0      0.00%     63.92% # Class of committed instruction
system.cpu.op_class_0::FloatCvt                     0      0.00%     63.92% # Class of committed instruction
system.cpu.op_class_0::FloatMult                    0      0.00%     63.92% # Class of committed instruction
system.cpu.op_class_0::FloatMultAcc                 0      0.00%     63.92% # Class of committed instruction
system.cpu.op_class_0::FloatDiv                     0      0.00%     63.92% # Class of committed instruction
system.cpu.op_class_0::FloatMisc                    0      0.00%     63.92% # Class of committed instruction
system.cpu.op_class_0::FloatSqrt                    0      0.00%     63.92% # Class of committed instruction
system.cpu.op_class_0::SimdAdd                      0      0.00%     63.92% # Class of committed instruction
system.cpu.op_class_0::SimdAddAcc                   0      0.00%     63.92% # Class of committed instruction
system.cpu.op_class_0::SimdAlu                      0      0.00%     63.92% # Class of committed instruction
system.cpu.op_class_0::SimdCmp                      0      0.00%     63.92% # Class of committed instruction
system.cpu.op_class_0::SimdCvt                      0      0.00%     63.92% # Class of committed instruction
system.cpu.op_class_0::SimdMisc                     0      0.00%     63.92% # Class of committed instruction
system.cpu.op_class_0::SimdMult                     0      0.00%     63.92% # Class of committed instruction
system.cpu.op_class_0::SimdMultAcc                  0      0.00%     63.92% # Class of committed instruction
system.cpu.op_class_0::SimdShift                    0      0.00%     63.92% # Class of committed instruction
system.cpu.op_class_0::SimdShiftAcc                 0      0.00%     63.92% # Class of committed instruction
system.cpu.op_class_0::SimdDiv                      0      0.00%     63.92% # Class of committed instruction
system.cpu.op_class_0::SimdSqrt                     0      0.00%     63.92% # Class of committed instruction
system.cpu.op_class_0::SimdFloatAdd                 0      0.00%     63.92% # Class of committed instruction
system.cpu.op_class_0::SimdFloatAlu                 0      0.00%     63.92% # Class of committed instruction
system.cpu.op_class_0::SimdFloatCmp                 0      0.00%     63.92% # Class of committed instruction
system.cpu.op_class_0::SimdFloatCvt                 0      0.00%     63.92% # Class of committed instruction
system.cpu.op_class_0::SimdFloatDiv                 0      0.00%     63.92% # Class of committed instruction
system.cpu.op_class_0::SimdFloatMisc               21      0.00%     63.92% # Class of committed instruction
system.cpu.op_class_0::SimdFloatMult                0      0.00%     63.92% # Class of committed instruction
system.cpu.op_class_0::SimdFloatMultAcc             0      0.00%     63.92% # Class of committed instruction
system.cpu.op_class_0::SimdFloatSqrt                0      0.00%     63.92% # Class of committed instruction
system.cpu.op_class_0::SimdReduceAdd                0      0.00%     63.92% # Class of committed instruction
system.cpu.op_class_0::SimdReduceAlu                0      0.00%     63.92% # Class of committed instruction
system.cpu.op_class_0::SimdReduceCmp                0      0.00%     63.92% # Class of committed instruction
system.cpu.op_class_0::SimdFloatReduceAdd            0      0.00%     63.92% # Class of committed instruction
system.cpu.op_class_0::SimdFloatReduceCmp            0      0.00%     63.92% # Class of committed instruction
system.cpu.op_class_0::SimdAes                      0      0.00%     63.92% # Class of committed instruction
system.cpu.op_class_0::SimdAesMix                   0      0.00%     63.92% # Class of committed instruction
system.cpu.op_class_0::SimdSha1Hash                 0      0.00%     63.92% # Class of committed instruction
system.cpu.op_class_0::SimdSha1Hash2                0      0.00%     63.92% # Class of committed instruction
system.cpu.op_class_0::SimdSha256Hash               0      0.00%     63.92% # Class of committed instruction
system.cpu.op_class_0::SimdSha256Hash2              0      0.00%     63.92% # Class of committed instruction
system.cpu.op_class_0::SimdShaSigma2                0      0.00%     63.92% # Class of committed instruction
system.cpu.op_class_0::SimdShaSigma3                0      0.00%     63.92% # Class of committed instruction
system.cpu.op_class_0::SimdPredAlu                  0      0.00%     63.92% # Class of committed instruction
system.cpu.op_class_0::MemRead                 261527     19.09%     83.01% # Class of committed instruction
system.cpu.op_class_0::MemWrite                232810     16.99%    100.00% # Class of committed instruction
system.cpu.op_class_0::FloatMemRead                 0      0.00%    100.00% # Class of committed instruction
system.cpu.op_class_0::FloatMemWrite                0      0.00%    100.00% # Class of committed instruction
system.cpu.op_class_0::IprAccess                    0      0.00%    100.00% # Class of committed instruction
system.cpu.op_class_0::InstPrefetch                 0      0.00%    100.00% # Class of committed instruction
system.cpu.op_class_0::total                  1370020                       # Class of committed instruction
system.cpu.tickCycles                         1460339                       # Number of cycles that the object actually ticked
system.cpu.workload.numSyscalls                    11                       # Number of system calls
system.membus.snoop_filter.hit_multi_requests            9                       # Number of requests hitting in the snoop filter with multiple (>1) holders of the requested data.
system.membus.snoop_filter.hit_multi_snoops            0                       # Number of snoops hitting in the snoop filter with multiple (>1) holders of the requested data.
system.membus.snoop_filter.hit_single_requests          304                       # Number of requests hitting in the snoop filter with a single holder of the requested data.
system.membus.snoop_filter.hit_single_snoops            0                       # Number of snoops hitting in the snoop filter with a single holder of the requested data.
system.membus.snoop_filter.tot_requests          1066                       # Total number of requests made to the snoop filter.
system.membus.snoop_filter.tot_snoops               0                       # Total number of snoops made to the snoop filter.
system.clk_domain.clock                          1000                       # Clock period in ticks
system.cpu.branchPred.lookups                  214026                       # Number of BP lookups
system.cpu.branchPred.condPredicted             61459                       # Number of conditional branches predicted
system.cpu.branchPred.condIncorrect              5138                       # Number of conditional branches incorrect
system.cpu.branchPred.BTBLookups               124195                       # Number of BTB lookups
system.cpu.branchPred.BTBHits                  123130                       # Number of BTB hits
system.cpu.branchPred.BTBHitPct             99.142478                       # BTB Hit Percentage
system.cpu.branchPred.RASUsed                   61890                       # Number of times the RAS was used to get a target.
system.cpu.branchPred.RASIncorrect                  2                       # Number of incorrect RAS predictions.
system.cpu.branchPred.indirectLookups             349                       # Number of indirect predictor lookups.
system.cpu.branchPred.indirectHits                129                       # Number of indirect target hits.
system.cpu.branchPred.indirectMisses              220                       # Number of indirect misses.
system.cpu.branchPred.indirectMispredicted           68                       # Number of mispredicted indirect branches.
system.cpu.dcache.demand_hits::.cpu.data       452136                       # number of demand (read+write) hits
system.cpu.dcache.demand_hits::total           452136                       # number of demand (read+write) hits
system.cpu.dcache.overall_hits::.cpu.data       452155                       # number of overall hits
system.cpu.dcache.overall_hits::total          452155                       # number of overall hits
system.cpu.dcache.demand_misses::.cpu.data          229                       # number of demand (read+write) misses
system.cpu.dcache.demand_misses::total            229                       # number of demand (read+write) misses
system.cpu.dcache.overall_misses::.cpu.data          239                       # number of overall misses
system.cpu.dcache.overall_misses::total           239                       # number of overall misses
system.cpu.dcache.demand_miss_latency::.cpu.data     12883000                       # number of demand (read+write) miss cycles
system.cpu.dcache.demand_miss_latency::total     12883000                       # number of demand (read+write) miss cycles
system.cpu.dcache.overall_miss_latency::.cpu.data     12883000                       # number of overall miss cycles
system.cpu.dcache.overall_miss_latency::total     12883000                       # number of overall miss cycles
system.cpu.dcache.demand_accesses::.cpu.data       452365                       # number of demand (read+write) accesses
system.cpu.dcache.demand_accesses::total       452365                       # number of demand (read+write) accesses
system.cpu.dcache.overall_accesses::.cpu.data       452394                       # number of overall (read+write) accesses
system.cpu.dcache.overall_accesses::total       452394                       # number of overall (read+write) accesses
system.cpu.dcache.demand_miss_rate::.cpu.data     0.000506                       # miss rate for demand accesses
system.cpu.dcache.demand_miss_rate::total     0.000506                       # miss rate for demand accesses
system.cpu.dcache.overall_miss_rate::.cpu.data     0.000528                       # miss rate for overall accesses
system.cpu.dcache.overall_miss_rate::total     0.000528                       # miss rate for overall accesses
system.cpu.dcache.demand_avg_miss_latency::.cpu.data 56257.641921                       # average overall miss latency
system.cpu.dcache.demand_avg_miss_latency::total 56257.641921                       # average overall miss latency
system.cpu.dcache.overall_avg_miss_latency::.cpu.data 53903.765690                       # average overall miss latency
system.cpu.dcache.overall_avg_miss_latency::total 53903.765690                       # average overall miss latency
system.cpu.dcache.blocked_cycles::no_mshrs            0                       # number of cycles access was blocked
system.cpu.dcache.blocked_cycles::no_targets            0                       # number of cycles access was blocked
system.cpu.dcache.blocked::no_mshrs                 0                       # number of cycles access was blocked
system.cpu.dcache.blocked::no_targets               0                       # number of cycles access was blocked
system.cpu.dcache.avg_blocked_cycles::no_mshrs          nan                       # average number of cycles each access was blocked
system.cpu.dcache.avg_blocked_cycles::no_targets          nan                       # average number of cycles each access was blocked
system.cpu.dcache.demand_mshr_hits::.cpu.data           55                       # number of demand (read+write) MSHR hits
system.cpu.dcache.demand_mshr_hits::total           55                       # number of demand (read+write) MSHR hits
system.cpu.dcache.overall_mshr_hits::.cpu.data           55                       # number of overall MSHR hits
system.cpu.dcache.overall_mshr_hits::total           55                       # number of overall MSHR hits
system.cpu.dcache.demand_mshr_misses::.cpu.data          174                       # number of demand (read+write) MSHR misses
system.cpu.dcache.demand_mshr_misses::total          174                       # number of demand (read+write) MSHR misses
system.cpu.dcache.overall_mshr_misses::.cpu.data          180                       # number of overall MSHR misses
system.cpu.dcache.overall_mshr_misses::total          180                       # number of overall MSHR misses
system.cpu.dcache.demand_mshr_miss_latency::.cpu.data      9842000                       # number of demand (read+write) MSHR miss cycles
system.cpu.dcache.demand_mshr_miss_latency::total      9842000                       # number of demand (read+write) MSHR miss cycles
system.cpu.dcache.overall_mshr_miss_latency::.cpu.data     10171500                       # number of overall MSHR miss cycles
system.cpu.dcache.overall_mshr_miss_latency::total     10171500                       # number of overall MSHR miss cycles
system.cpu.dcache.demand_mshr_miss_rate::.cpu.data     0.000385                       # mshr miss rate for demand accesses
system.cpu.dcache.demand_mshr_miss_rate::total     0.000385                       # mshr miss rate for demand accesses
system.cpu.dcache.overall_mshr_miss_rate::.cpu.data     0.000398                       # mshr miss rate for overall accesses
system.cpu.dcache.overall_mshr_miss_rate::total     0.000398                       # mshr miss rate for overall accesses
system.cpu.dcache.demand_avg_mshr_miss_latency::.cpu.data 56563.218391                       # average overall mshr miss latency
system.cpu.dcache.demand_avg_mshr_miss_latency::total 56563.218391                       # average overall mshr miss latency
system.cpu.dcache.overall_avg_mshr_miss_latency::.cpu.data 56508.333333                       # average overall mshr miss latency
system.cpu.dcache.overall_avg_mshr_miss_latency::total 56508.333333                       # average overall mshr miss latency
system.cpu.dcache.replacements                      0                       # number of replacements
system.cpu.dcache.ReadReq_hits::.cpu.data       219640                       # number of ReadReq hits
system.cpu.dcache.ReadReq_hits::total          219640                       # number of ReadReq hits
system.cpu.dcache.ReadReq_misses::.cpu.data          109                       # number of ReadReq misses
system.cpu.dcache.ReadReq_misses::total           109                       # number of ReadReq misses
system.cpu.dcache.ReadReq_miss_latency::.cpu.data      6091000                       # number of ReadReq miss cycles
system.cpu.dcache.ReadReq_miss_latency::total      6091000                       # number of ReadReq miss cycles
system.cpu.dcache.ReadReq_accesses::.cpu.data       219749                       # number of ReadReq accesses(hits+misses)
system.cpu.dcache.ReadReq_accesses::total       219749                       # number of ReadReq accesses(hits+misses)
system.cpu.dcache.ReadReq_miss_rate::.cpu.data     0.000496                       # miss rate for ReadReq accesses
system.cpu.dcache.ReadReq_miss_rate::total     0.000496                       # miss rate for ReadReq accesses
system.cpu.dcache.ReadReq_avg_miss_latency::.cpu.data 55880.733945                       # average ReadReq miss latency
system.cpu.dcache.ReadReq_avg_miss_latency::total 55880.733945                       # average ReadReq miss latency
system.cpu.dcache.ReadReq_mshr_hits::.cpu.data            6                       # number of ReadReq MSHR hits
system.cpu.dcache.ReadReq_mshr_hits::total            6                       # number of ReadReq MSHR hits
system.cpu.dcache.ReadReq_mshr_misses::.cpu.data          103                       # number of ReadReq MSHR misses
system.cpu.dcache.ReadReq_mshr_misses::total          103                       # number of ReadReq MSHR misses
system.cpu.dcache.ReadReq_mshr_miss_latency::.cpu.data      5698000                       # number of ReadReq MSHR miss cycles
system.cpu.dcache.ReadReq_mshr_miss_latency::total      5698000                       # number of ReadReq MSHR miss cycles
system.cpu.dcache.ReadReq_mshr_miss_rate::.cpu.data     0.000469                       # mshr miss rate for ReadReq accesses
system.cpu.dcache.ReadReq_mshr_miss_rate::total     0.000469                       # mshr miss rate for ReadReq accesses
system.cpu.dcache.ReadReq_avg_mshr_miss_latency::.cpu.data 55320.388350                       # average ReadReq mshr miss latency
system.cpu.dcache.ReadReq_avg_mshr_miss_latency::total 55320.388350                       # average ReadReq mshr miss latency
system.cpu.dcache.WriteReq_hits::.cpu.data       232496                       # number of WriteReq hits
system.cpu.dcache.WriteReq_hits::total         232496                       # number of WriteReq hits
system.cpu.dcache.WriteReq_misses::.cpu.data          120                       # number of WriteReq misses
system.cpu.dcache.WriteReq_misses::total          120                       # number of WriteReq misses
system.cpu.dcache.WriteReq_miss_latency::.cpu.data      6792000                       # number of WriteReq miss cycles
system.cpu.dcache.WriteReq_miss_latency::total      6792000                       # number of WriteReq miss cycles
system.cpu.dcache.WriteReq_accesses::.cpu.data       232616                       # number of WriteReq accesses(hits+misses)
system.cpu.dcache.WriteReq_accesses::total       232616                       # number of WriteReq accesses(hits+misses)
system.cpu.dcache.WriteReq_miss_rate::.cpu.data     0.000516                       # miss rate for WriteReq accesses
system.cpu.dcache.WriteReq_miss_rate::total     0.000516                       # miss rate for WriteReq accesses
system.cpu.dcache.WriteReq_avg_miss_latency::.cpu.data        56600                       # average WriteReq miss latency
system.cpu.dcache.WriteReq_avg_miss_latency::total        56600                       # average WriteReq miss latency
system.cpu.dcache.WriteReq_mshr_hits::.cpu.data           49                       # number of WriteReq MSHR hits
system.cpu.dcache.WriteReq_mshr_hits::total           49                       # number of WriteReq MSHR hits
system.cpu.dcache.WriteReq_mshr_misses::.cpu.data           71                       # number of WriteReq MSHR misses
system.cpu.dcache.WriteReq_mshr_misses::total           71                       # number of WriteReq MSHR misses
system.cpu.dcache.WriteReq_mshr_miss_latency::.cpu.data      4144000                       # number of WriteReq MSHR miss cycles
system.cpu.dcache.WriteReq_mshr_miss_latency::total      4144000                       # number of WriteReq MSHR miss cycles
system.cpu.dcache.WriteReq_mshr_miss_rate::.cpu.data     0.000305                       # mshr miss rate for WriteReq accesses
system.cpu.dcache.WriteReq_mshr_miss_rate::total     0.000305                       # mshr miss rate for WriteReq accesses
system.cpu.dcache.WriteReq_avg_mshr_miss_latency::.cpu.data 58366.197183                       # average WriteReq mshr miss latency
system.cpu.dcache.WriteReq_avg_mshr_miss_latency::total 58366.197183                       # average WriteReq mshr miss latency
system.cpu.dcache.SoftPFReq_hits::.cpu.data           19                       # number of SoftPFReq hits
system.cpu.dcache.SoftPFReq_hits::total            19                       # number of SoftPFReq hits
system.cpu.dcache.SoftPFReq_misses::.cpu.data           10                       # number of SoftPFReq misses
system.cpu.dcache.SoftPFReq_misses::total           10                       # number of SoftPFReq misses
system.cpu.dcache.SoftPFReq_accesses::.cpu.data           29                       # number of SoftPFReq accesses(hits+misses)
system.cpu.dcache.SoftPFReq_accesses::total           29                       # number of SoftPFReq accesses(hits+misses)
system.cpu.dcache.SoftPFReq_miss_rate::.cpu.data     0.344828                       # miss rate for SoftPFReq accesses
system.cpu.dcache.SoftPFReq_miss_rate::total     0.344828                       # miss rate for SoftPFReq accesses
system.cpu.dcache.SoftPFReq_mshr_misses::.cpu.data            6                       # number of SoftPFReq MSHR misses
system.cpu.dcache.SoftPFReq_mshr_misses::total            6                       # number of SoftPFReq MSHR misses
system.cpu.dcache.SoftPFReq_mshr_miss_latency::.cpu.data       329500                       # number of SoftPFReq MSHR miss cycles
system.cpu.dcache.SoftPFReq_mshr_miss_latency::total       329500                       # number of SoftPFReq MSHR miss cycles
system.cpu.dcache.SoftPFReq_mshr_miss_rate::.cpu.data     0.206897                       # mshr miss rate for SoftPFReq accesses
system.cpu.dcache.SoftPFReq_mshr_miss_rate::total     0.206897                       # mshr miss rate for SoftPFReq accesses
system.cpu.dcache.SoftPFReq_avg_mshr_miss_latency::.cpu.data 54916.666667                       # average SoftPFReq mshr miss latency
system.cpu.dcache.SoftPFReq_avg_mshr_miss_latency::total 54916.666667                       # average SoftPFReq mshr miss latency
system.cpu.dcache.LoadLockedReq_hits::.cpu.data           60                       # number of LoadLockedReq hits
system.cpu.dcache.LoadLockedReq_hits::total           60                       # number of LoadLockedReq hits
system.cpu.dcache.LoadLockedReq_accesses::.cpu.data           60                       # number of LoadLockedReq accesses(hits+misses)
system.cpu.dcache.LoadLockedReq_accesses::total           60                       # number of LoadLockedReq accesses(hits+misses)
system.cpu.dcache.StoreCondReq_hits::.cpu.data           60                       # number of StoreCondReq hits
system.cpu.dcache.StoreCondReq_hits::total           60                       # number of StoreCondReq hits
system.cpu.dcache.StoreCondReq_accesses::.cpu.data           60                       # number of StoreCondReq accesses(hits+misses)
system.cpu.dcache.StoreCondReq_accesses::total           60                       # number of StoreCondReq accesses(hits+misses)
system.cpu.dcache.power_state.pwrStateResidencyTicks::UNDEFINED    761720000                       # Cumulative time (in ticks) in various power states
system.cpu.dcache.tags.tagsinuse           161.279986                       # Cycle average of tags in use
system.cpu.dcache.tags.total_refs              452455                       # Total number of references to valid blocks.
system.cpu.dcache.tags.sampled_refs               180                       # Sample count of references to valid blocks.
system.cpu.dcache.tags.avg_refs           2513.638889                       # Average number of references to valid blocks.
system.cpu.dcache.tags.warmup_cycle            144000                       # Cycle when the warmup percentage was hit.
system.cpu.dcache.tags.occ_blocks::.cpu.data   161.279986                       # Average occupied blocks per requestor
system.cpu.dcache.tags.occ_percent::.cpu.data     0.157500                       # Average percentage of cache occupancy
system.cpu.dcache.tags.occ_percent::total     0.157500                       # Average percentage of cache occupancy
system.cpu.dcache.tags.occ_task_id_blocks::1024          180                       # Occupied blocks per task id
system.cpu.dcache.tags.age_task_id_blocks_1024::0           16                       # Occupied blocks per task id
system.cpu.dcache.tags.age_task_id_blocks_1024::2          164                       # Occupied blocks per task id
system.cpu.dcache.tags.occ_task_id_percent::1024     0.175781                       # Percentage of cache occupancy per task id
system.cpu.dcache.tags.tag_accesses            905208                       # Number of tag accesses
system.cpu.dcache.tags.data_accesses           905208                       # Number of data accesses
system.cpu.dcache.tags.power_state.pwrStateResidencyTicks::UNDEFINED    761720000                       # Cumulative time (in ticks) in various power states
system.cpu.dtb.instHits                             0                       # ITB inst hits
system.cpu.dtb.instMisses                           0                       # ITB inst misses
system.cpu.dtb.readHits                             0                       # DTB read hits
system.cpu.dtb.readMisses                           0                       # DTB read misses
system.cpu.dtb.writeHits                            0                       # DTB write hits
system.cpu.dtb.writeMisses                          0                       # DTB write misses
system.cpu.dtb.inserts                              0                       # Number of times an entry is inserted into the TLB
system.cpu.dtb.flushTlb                             0                       # Number of times complete TLB was flushed
system.cpu.dtb.flushTlbMva                          0                       # Number of times TLB was flushed by MVA
system.cpu.dtb.flushTlbMvaAsid                      0                       # Number of times TLB was flushed by MVA & ASID
system.cpu.dtb.flushTlbAsid                         0                       # Number of times TLB was flushed by ASID
system.cpu.dtb.flushedEntries                       0                       # Number of entries that have been flushed from TLB
system.cpu.dtb.alignFaults                          0                       # Number of TLB faults due to alignment restrictions
system.cpu.dtb.prefetchFaults                       0                       # Number of TLB faults due to prefetch
system.cpu.dtb.domainFaults                         0                       # Number of TLB faults due to domain restrictions
system.cpu.dtb.permsFaults                          0                       # Number of TLB faults due to permissions restrictions
system.cpu.dtb.readAccesses                         0                       # DTB read accesses
system.cpu.dtb.writeAccesses                        0                       # DTB write accesses
system.cpu.dtb.instAccesses                         0                       # ITB inst accesses
system.cpu.dtb.hits                                 0                       # Total TLB (inst and data) hits
system.cpu.dtb.misses                               0                       # Total TLB (inst and data) misses
system.cpu.dtb.accesses                             0                       # Total TLB (inst and data) accesses
system.cpu.dtb.stage2_mmu.stage2_tlb.instHits            0                       # ITB inst hits
system.cpu.dtb.stage2_mmu.stage2_tlb.instMisses            0                       # ITB inst misses
system.cpu.dtb.stage2_mmu.stage2_tlb.readHits            0                       # DTB read hits
system.cpu.dtb.stage2_mmu.stage2_tlb.readMisses            0                       # DTB read misses
system.cpu.dtb.stage2_mmu.stage2_tlb.writeHits            0                       # DTB write hits
system.cpu.dtb.stage2_mmu.stage2_tlb.writeMisses            0                       # DTB write misses
system.cpu.dtb.stage2_mmu.stage2_tlb.inserts            0                       # Number of times an entry is inserted into the TLB
system.cpu.dtb.stage2_mmu.stage2_tlb.flushTlb            0                       # Number of times complete TLB was flushed
system.cpu.dtb.stage2_mmu.stage2_tlb.flushTlbMva            0                       # Number of times TLB was flushed by MVA
system.cpu.dtb.stage2_mmu.stage2_tlb.flushTlbMvaAsid            0                       # Number of times TLB was flushed by MVA & ASID
system.cpu.dtb.stage2_mmu.stage2_tlb.flushTlbAsid            0                       # Number of times TLB was flushed by ASID
system.cpu.dtb.stage2_mmu.stage2_tlb.flushedEntries            0                       # Number of entries that have been flushed from TLB
system.cpu.dtb.stage2_mmu.stage2_tlb.alignFaults            0                       # Number of TLB faults due to alignment restrictions
system.cpu.dtb.stage2_mmu.stage2_tlb.prefetchFaults            0                       # Number of TLB faults due to prefetch
system.cpu.dtb.stage2_mmu.stage2_tlb.domainFaults            0                       # Number of TLB faults due to domain restrictions
system.cpu.dtb.stage2_mmu.stage2_tlb.permsFaults            0                       # Number of TLB faults due to permissions restrictions
system.cpu.dtb.stage2_mmu.stage2_tlb.readAccesses            0                       # DTB read accesses
system.cpu.dtb.stage2_mmu.stage2_tlb.writeAccesses            0                       # DTB write accesses
system.cpu.dtb.stage2_mmu.stage2_tlb.instAccesses            0                       # ITB inst accesses
system.cpu.dtb.stage2_mmu.stage2_tlb.hits            0                       # Total TLB (inst and data) hits
system.cpu.dtb.stage2_mmu.stage2_tlb.misses            0                       # Total TLB (inst and data) misses
system.cpu.dtb.stage2_mmu.stage2_tlb.accesses            0                       # Total TLB (inst and data) accesses
system.cpu.dtb.stage2_mmu.stage2_tlb.walker.walks            0                       # Table walker walks requested
system.cpu.dtb.stage2_mmu.stage2_tlb.walker.requestOrigin_Requested::Data            0                       # Table walker requests started/completed, data/inst
system.cpu.dtb.stage2_mmu.stage2_tlb.walker.requestOrigin_Requested::Inst            0                       # Table walker requests started/completed, data/inst
system.cpu.dtb.stage2_mmu.stage2_tlb.walker.requestOrigin_Requested::total            0                       # Table walker requests started/completed, data/inst
system.cpu.dtb.stage2_mmu.stage2_tlb.walker.requestOrigin_Completed::Data            0                       # Table walker requests started/completed, data/inst
system.cpu.dtb.stage2_mmu.stage2_tlb.walker.requestOrigin_Completed::Inst            0                       # Table walker requests started/completed, data/inst
system.cpu.dtb.stage2_mmu.stage2_tlb.walker.requestOrigin_Completed::total            0                       # Table walker requests started/completed, data/inst
system.cpu.dtb.stage2_mmu.stage2_tlb.walker.requestOrigin::total            0                       # Table walker requests started/completed, data/inst
system.cpu.dtb.stage2_mmu.stage2_tlb.walker.power_state.pwrStateResidencyTicks::UNDEFINED    761720000                       # Cumulative time (in ticks) in various power states
system.cpu.dtb.walker.walks                         0                       # Table walker walks requested
system.cpu.dtb.walker.requestOrigin_Requested::Data            0                       # Table walker requests started/completed, data/inst
system.cpu.dtb.walker.requestOrigin_Requested::Inst            0                       # Table walker requests started/completed, data/inst
system.cpu.dtb.walker.requestOrigin_Requested::total            0                       # Table walker requests started/completed, data/inst
system.cpu.dtb.walker.requestOrigin_Completed::Data            0                       # Table walker requests started/completed, data/inst
system.cpu.dtb.walker.requestOrigin_Completed::Inst            0                       # Table walker requests started/completed, data/inst
system.cpu.dtb.walker.requestOrigin_Completed::total            0                       # Table walker requests started/completed, data/inst
system.cpu.dtb.walker.requestOrigin::total            0                       # Table walker requests started/completed, data/inst
system.cpu.dtb.walker.power_state.pwrStateResidencyTicks::UNDEFINED    761720000                       # Cumulative time (in ticks) in various power states
system.cpu.fetch2.intInstructions              645514                       # Number of integer instructions successfully decoded
system.cpu.fetch2.fpInstructions                    0                       # Number of floating point instructions successfully decoded
system.cpu.fetch2.vecInstructions                   0                       # Number of SIMD instructions successfully decoded
system.cpu.fetch2.loadInstructions             156164                       # Number of memory load instructions successfully decoded
system.cpu.fetch2.storeInstructions             59981                       # Number of memory store instructions successfully decoded
system.cpu.fetch2.amoInstructions                   0                       # Number of memory atomic instructions successfully decoded
system.cpu.icache.demand_hits::.cpu.inst       465695                       # number of demand (read+write) hits
system.cpu.icache.demand_hits::total           465695                       # number of demand (read+write) hits
system.cpu.icache.overall_hits::.cpu.inst       465695                       # number of overall hits
system.cpu.icache.overall_hits::total          465695                       # number of overall hits
system.cpu.icache.demand_misses::.cpu.inst          599                       # number of demand (read+write) misses
system.cpu.icache.demand_misses::total            599                       # number of demand (read+write) misses
system.cpu.icache.overall_misses::.cpu.inst          599                       # number of overall misses
system.cpu.icache.overall_misses::total           599                       # number of overall misses
system.cpu.icache.demand_miss_latency::.cpu.inst     27796000                       # number of demand (read+write) miss cycles
system.cpu.icache.demand_miss_latency::total     27796000                       # number of demand (read+write) miss cycles
system.cpu.icache.overall_miss_latency::.cpu.inst     27796000                       # number of overall miss cycles
system.cpu.icache.overall_miss_latency::total     27796000                       # number of overall miss cycles
system.cpu.icache.demand_accesses::.cpu.inst       466294                       # number of demand (read+write) accesses
system.cpu.icache.demand_accesses::total       466294                       # number of demand (read+write) accesses
system.cpu.icache.overall_accesses::.cpu.inst       466294                       # number of overall (read+write) accesses
system.cpu.icache.overall_accesses::total       466294                       # number of overall (read+write) accesses
system.cpu.icache.demand_miss_rate::.cpu.inst     0.001285                       # miss rate for demand accesses
system.cpu.icache.demand_miss_rate::total     0.001285                       # miss rate for demand accesses
system.cpu.icache.overall_miss_rate::.cpu.inst     0.001285                       # miss rate for overall accesses
system.cpu.icache.overall_miss_rate::total     0.001285                       # miss rate for overall accesses
system.cpu.icache.demand_avg_miss_latency::.cpu.inst 46404.006678                       # average overall miss latency
system.cpu.icache.demand_avg_miss_latency::total 46404.006678                       # average overall miss latency
system.cpu.icache.overall_avg_miss_latency::.cpu.inst 46404.006678                       # average overall miss latency
system.cpu.icache.overall_avg_miss_latency::total 46404.006678                       # average overall miss latency
system.cpu.icache.blocked_cycles::no_mshrs            0                       # number of cycles access was blocked
system.cpu.icache.blocked_cycles::no_targets            0                       # number of cycles access was blocked
system.cpu.icache.blocked::no_mshrs                 0                       # number of cycles access was blocked
system.cpu.icache.blocked::no_targets               0                       # number of cycles access was blocked
system.cpu.icache.avg_blocked_cycles::no_mshrs          nan                       # average number of cycles each access was blocked
system.cpu.icache.avg_blocked_cycles::no_targets          nan                       # average number of cycles each access was blocked
system.cpu.icache.writebacks::.writebacks          287                       # number of writebacks
system.cpu.icache.writebacks::total               287                       # number of writebacks
system.cpu.icache.demand_mshr_misses::.cpu.inst          599                       # number of demand (read+write) MSHR misses
system.cpu.icache.demand_mshr_misses::total          599                       # number of demand (read+write) MSHR misses
system.cpu.icache.overall_mshr_misses::.cpu.inst          599                       # number of overall MSHR misses
system.cpu.icache.overall_mshr_misses::total          599                       # number of overall MSHR misses
system.cpu.icache.demand_mshr_miss_latency::.cpu.inst     27197000                       # number of demand (read+write) MSHR miss cycles
system.cpu.icache.demand_mshr_miss_latency::total     27197000                       # number of demand (read+write) MSHR miss cycles
system.cpu.icache.overall_mshr_miss_latency::.cpu.inst     27197000                       # number of overall MSHR miss cycles
system.cpu.icache.overall_mshr_miss_latency::total     27197000                       # number of overall MSHR miss cycles
system.cpu.icache.demand_mshr_miss_rate::.cpu.inst     0.001285                       # mshr miss rate for demand accesses
system.cpu.icache.demand_mshr_miss_rate::total     0.001285                       # mshr miss rate for demand accesses
system.cpu.icache.overall_mshr_miss_rate::.cpu.inst     0.001285                       # mshr miss rate for overall accesses
system.cpu.icache.overall_mshr_miss_rate::total     0.001285                       # mshr miss rate for overall accesses
system.cpu.icache.demand_avg_mshr_miss_latency::.cpu.inst 45404.006678                       # average overall mshr miss latency
system.cpu.icache.demand_avg_mshr_miss_latency::total 45404.006678                       # average overall mshr miss latency
system.cpu.icache.overall_avg_mshr_miss_latency::.cpu.inst 45404.006678                       # average overall mshr miss latency
system.cpu.icache.overall_avg_mshr_miss_latency::total 45404.006678                       # average overall mshr miss latency
system.cpu.icache.replacements                    287                       # number of replacements
system.cpu.icache.ReadReq_hits::.cpu.inst       465695                       # number of ReadReq hits
system.cpu.icache.ReadReq_hits::total          465695                       # number of ReadReq hits
system.cpu.icache.ReadReq_misses::.cpu.inst          599                       # number of ReadReq misses
system.cpu.icache.ReadReq_misses::total           599                       # number of ReadReq misses
system.cpu.icache.ReadReq_miss_latency::.cpu.inst     27796000                       # number of ReadReq miss cycles
system.cpu.icache.ReadReq_miss_latency::total     27796000                       # number of ReadReq miss cycles
system.cpu.icache.ReadReq_accesses::.cpu.inst       466294                       # number of ReadReq accesses(hits+misses)
system.cpu.icache.ReadReq_accesses::total       466294                       # number of ReadReq accesses(hits+misses)
system.cpu.icache.ReadReq_miss_rate::.cpu.inst     0.001285                       # miss rate for ReadReq accesses
system.cpu.icache.ReadReq_miss_rate::total     0.001285                       # miss rate for ReadReq accesses
system.cpu.icache.ReadReq_avg_miss_latency::.cpu.inst 46404.006678                       # average ReadReq miss latency
system.cpu.icache.ReadReq_avg_miss_latency::total 46404.006678                       # average ReadReq miss latency
system.cpu.icache.ReadReq_mshr_misses::.cpu.inst          599                       # number of ReadReq MSHR misses
system.cpu.icache.ReadReq_mshr_misses::total          599                       # number of ReadReq MSHR misses
system.cpu.icache.ReadReq_mshr_miss_latency::.cpu.inst     27197000                       # number of ReadReq MSHR miss cycles
system.cpu.icache.ReadReq_mshr_miss_latency::total     27197000                       # number of ReadReq MSHR miss cycles
system.cpu.icache.ReadReq_mshr_miss_rate::.cpu.inst     0.001285                       # mshr miss rate for ReadReq accesses
system.cpu.icache.ReadReq_mshr_miss_rate::total     0.001285                       # mshr miss rate for ReadReq accesses
system.cpu.icache.ReadReq_avg_mshr_miss_latency::.cpu.inst 45404.006678                       # average ReadReq mshr miss latency
system.cpu.icache.ReadReq_avg_mshr_miss_latency::total 45404.006678                       # average ReadReq mshr miss latency
system.cpu.icache.power_state.pwrStateResidencyTicks::UNDEFINED    761720000                       # Cumulative time (in ticks) in various power states
system.cpu.icache.tags.tagsinuse           273.279554                       # Cycle average of tags in use
system.cpu.icache.tags.total_refs              466294                       # Total number of references to valid blocks.
system.cpu.icache.tags.sampled_refs               599                       # Sample count of references to valid blocks.
system.cpu.icache.tags.avg_refs            778.454090                       # Average number of references to valid blocks.
system.cpu.icache.tags.warmup_cycle             77000                       # Cycle when the warmup percentage was hit.
system.cpu.icache.tags.occ_blocks::.cpu.inst   273.279554                       # Average occupied blocks per requestor
system.cpu.icache.tags.occ_percent::.cpu.inst     0.533749                       # Average percentage of cache occupancy
system.cpu.icache.tags.occ_percent::total     0.533749                       # Average percentage of cache occupancy
system.cpu.icache.tags.occ_task_id_blocks::1024          312                       # Occupied blocks per task id
system.cpu.icache.tags.age_task_id_blocks_1024::0           67                       # Occupied blocks per task id
system.cpu.icache.tags.age_task_id_blocks_1024::2          245                       # Occupied blocks per task id
system.cpu.icache.tags.occ_task_id_percent::1024     0.609375                       # Percentage of cache occupancy per task id
system.cpu.icache.tags.tag_accesses            933187                       # Number of tag accesses
system.cpu.icache.tags.data_accesses           933187                       # Number of data accesses
system.cpu.icache.tags.power_state.pwrStateResidencyTicks::UNDEFINED    761720000                       # Cumulative time (in ticks) in various power states
system.cpu.itb.instHits                             0                       # ITB inst hits
system.cpu.itb.instMisses                           0                       # ITB inst misses
system.cpu.itb.readHits                             0                       # DTB read hits
system.cpu.itb.readMisses                           0                       # DTB read misses
system.cpu.itb.writeHits                            0                       # DTB write hits
system.cpu.itb.writeMisses                          0                       # DTB write misses
system.cpu.itb.inserts                              0                       # Number of times an entry is inserted into the TLB
system.cpu.itb.flushTlb                             0                       # Number of times complete TLB was flushed
system.cpu.itb.flushTlbMva                          0                       # Number of times TLB was flushed by MVA
system.cpu.itb.flushTlbMvaAsid                      0                       # Number of times TLB was flushed by MVA & ASID
system.cpu.itb.flushTlbAsid                         0                       # Number of times TLB was flushed by ASID
system.cpu.itb.flushedEntries                       0                       # Number of entries that have been flushed from TLB
system.cpu.itb.alignFaults                          0                       # Number of TLB faults due to alignment restrictions
system.cpu.itb.prefetchFaults                       0                       # Number of TLB faults due to prefetch
system.cpu.itb.domainFaults                         0                       # Number of TLB faults due to domain restrictions
system.cpu.itb.permsFaults                          0                       # Number of TLB faults due to permissions restrictions
system.cpu.itb.readAccesses                         0                       # DTB read accesses
system.cpu.itb.writeAccesses                        0                       # DTB write accesses
system.cpu.itb.instAccesses                         0                       # ITB inst accesses
system.cpu.itb.hits                                 0                       # Total TLB (inst and data) hits
system.cpu.itb.misses                               0                       # Total TLB (inst and data) misses
system.cpu.itb.accesses                             0                       # Total TLB (inst and data) accesses
system.cpu.itb.stage2_mmu.stage2_tlb.instHits            0                       # ITB inst hits
system.cpu.itb.stage2_mmu.stage2_tlb.instMisses            0                       # ITB inst misses
system.cpu.itb.stage2_mmu.stage2_tlb.readHits            0                       # DTB read hits
system.cpu.itb.stage2_mmu.stage2_tlb.readMisses            0                       # DTB read misses
system.cpu.itb.stage2_mmu.stage2_tlb.writeHits            0                       # DTB write hits
system.cpu.itb.stage2_mmu.stage2_tlb.writeMisses            0                       # DTB write misses
system.cpu.itb.stage2_mmu.stage2_tlb.inserts            0                       # Number of times an entry is inserted into the TLB
system.cpu.itb.stage2_mmu.stage2_tlb.flushTlb            0                       # Number of times complete TLB was flushed
system.cpu.itb.stage2_mmu.stage2_tlb.flushTlbMva            0                       # Number of times TLB was flushed by MVA
system.cpu.itb.stage2_mmu.stage2_tlb.flushTlbMvaAsid            0                       # Number of times TLB was flushed by MVA & ASID
system.cpu.itb.stage2_mmu.stage2_tlb.flushTlbAsid            0                       # Number of times TLB was flushed by ASID
system.cpu.itb.stage2_mmu.stage2_tlb.flushedEntries            0                       # Number of entries that have been flushed from TLB
system.cpu.itb.stage2_mmu.stage2_tlb.alignFaults            0                       # Number of TLB faults due to alignment restrictions
system.cpu.itb.stage2_mmu.stage2_tlb.prefetchFaults            0                       # Number of TLB faults due to prefetch
system.cpu.itb.stage2_mmu.stage2_tlb.domainFaults            0                       # Number of TLB faults due to domain restrictions
system.cpu.itb.stage2_mmu.stage2_tlb.permsFaults            0                       # Number of TLB faults due to permissions restrictions
system.cpu.itb.stage2_mmu.stage2_tlb.readAccesses            0                       # DTB read accesses
system.cpu.itb.stage2_mmu.stage2_tlb.writeAccesses            0                       # DTB write accesses
system.cpu.itb.stage2_mmu.stage2_tlb.instAccesses            0                       # ITB inst accesses
system.cpu.itb.stage2_mmu.stage2_tlb.hits            0                       # Total TLB (inst and data) hits
system.cpu.itb.stage2_mmu.stage2_tlb.misses            0                       # Total TLB (inst and data) misses
system.cpu.itb.stage2_mmu.stage2_tlb.accesses            0                       # Total TLB (inst and data) accesses
system.cpu.itb.stage2_mmu.stage2_tlb.walker.walks            0                       # Table walker walks requested
system.cpu.itb.stage2_mmu.stage2_tlb.walker.requestOrigin_Requested::Data            0                       # Table walker requests started/completed, data/inst
system.cpu.itb.stage2_mmu.stage2_tlb.walker.requestOrigin_Requested::Inst            0                       # Table walker requests started/completed, data/inst
system.cpu.itb.stage2_mmu.stage2_tlb.walker.requestOrigin_Requested::total            0                       # Table walker requests started/completed, data/inst
system.cpu.itb.stage2_mmu.stage2_tlb.walker.requestOrigin_Completed::Data            0                       # Table walker requests started/completed, data/inst
system.cpu.itb.stage2_mmu.stage2_tlb.walker.requestOrigin_Completed::Inst            0                       # Table walker requests started/completed, data/inst
system.cpu.itb.stage2_mmu.stage2_tlb.walker.requestOrigin_Completed::total            0                       # Table walker requests started/completed, data/inst
system.cpu.itb.stage2_mmu.stage2_tlb.walker.requestOrigin::total            0                       # Table walker requests started/completed, data/inst
system.cpu.itb.stage2_mmu.stage2_tlb.walker.power_state.pwrStateResidencyTicks::UNDEFINED    761720000                       # Cumulative time (in ticks) in various power states
system.cpu.itb.walker.walks                         0                       # Table walker walks requested
system.cpu.itb.walker.requestOrigin_Requested::Data            0                       # Table walker requests started/completed, data/inst
system.cpu.itb.walker.requestOrigin_Requested::Inst            0                       # Table walker requests started/completed, data/inst
system.cpu.itb.walker.requestOrigin_Requested::total            0                       # Table walker requests started/completed, data/inst
system.cpu.itb.walker.requestOrigin_Completed::Data            0                       # Table walker requests started/completed, data/inst
system.cpu.itb.walker.requestOrigin_Completed::Inst            0                       # Table walker requests started/completed, data/inst
system.cpu.itb.walker.requestOrigin_Completed::total            0                       # Table walker requests started/completed, data/inst
system.cpu.itb.walker.requestOrigin::total            0                       # Table walker requests started/completed, data/inst
system.cpu.itb.walker.power_state.pwrStateResidencyTicks::UNDEFINED    761720000                       # Cumulative time (in ticks) in various power states
system.cpu.power_state.pwrStateResidencyTicks::ON    761720000                       # Cumulative time (in ticks) in various power states
system.cpu.thread0.numInsts                   1022977                       # Number of Instructions committed
system.cpu.thread0.numOps                     1370020                       # Number of Ops committed
system.cpu.thread0.numMemRefs                       0                       # Number of Memory References
system.cpu_clk_domain.clock                       500                       # Clock period in ticks
system.cpu_voltage_domain.voltage                   1                       # Voltage in Volts
system.mem_ctrls.avgPriority_.writebacks::samples       137.00                       # Average QoS priority value for accepted requests
system.mem_ctrls.avgPriority_.cpu.inst::samples       418.00                       # Average QoS priority value for accepted requests
system.mem_ctrls.avgPriority_.cpu.data::samples       178.00                       # Average QoS priority value for accepted requests
system.mem_ctrls.priorityMinLatency      0.000000017492                       # per QoS priority minimum request to response latency (s)
system.mem_ctrls.priorityMaxLatency      0.001479329492                       # per QoS priority maximum request to response latency (s)
system.mem_ctrls.numReadWriteTurnArounds            5                       # Number of turnarounds from READ to WRITE
system.mem_ctrls.numWriteReadTurnArounds            5                       # Number of turnarounds from WRITE to READ
system.mem_ctrls.numStayReadState                1654                       # Number of times bus staying in READ state
system.mem_ctrls.numStayWriteState                 80                       # Number of times bus staying in WRITE state
system.mem_ctrls.readReqs                         779                       # Number of read requests accepted
system.mem_ctrls.writeReqs                        278                       # Number of write requests accepted
system.mem_ctrls.readBursts                       779                       # Number of controller read bursts, including those serviced by the write queue
system.mem_ctrls.writeBursts                      278                       # Number of controller write bursts, including those merged in the write queue
system.mem_ctrls.servicedByWrQ                    183                       # Number of controller read bursts serviced by the write queue
system.mem_ctrls.mergedWrBursts                   141                       # Number of controller write bursts merged with an existing one
system.mem_ctrls.neitherReadNorWriteReqs            0                       # Number of requests that are neither read nor write
system.mem_ctrls.avgRdQLen                       1.01                       # Average read queue length when enqueuing
system.mem_ctrls.avgWrQLen                      59.54                       # Average write queue length when enqueuing
system.mem_ctrls.numRdRetry                         0                       # Number of times read queue was full causing retry
system.mem_ctrls.numWrRetry                         0                       # Number of times write queue was full causing retry
system.mem_ctrls.readPktSize::0                     0                       # Read request sizes (log2)
system.mem_ctrls.readPktSize::1                     0                       # Read request sizes (log2)
system.mem_ctrls.readPktSize::2                     0                       # Read request sizes (log2)
system.mem_ctrls.readPktSize::3                     0                       # Read request sizes (log2)
system.mem_ctrls.readPktSize::4                     0                       # Read request sizes (log2)
system.mem_ctrls.readPktSize::5                     0                       # Read request sizes (log2)
system.mem_ctrls.readPktSize::6                   779                       # Read request sizes (log2)
system.mem_ctrls.writePktSize::0                    0                       # Write request sizes (log2)
system.mem_ctrls.writePktSize::1                    0                       # Write request sizes (log2)
system.mem_ctrls.writePktSize::2                    0                       # Write request sizes (log2)
system.mem_ctrls.writePktSize::3                    0                       # Write request sizes (log2)
system.mem_ctrls.writePktSize::4                    0                       # Write request sizes (log2)
system.mem_ctrls.writePktSize::5                    0                       # Write request sizes (log2)
system.mem_ctrls.writePktSize::6                  278                       # Write request sizes (log2)
system.mem_ctrls.rdQLenPdf::0                     505                       # What read queue length does an incoming req see
system.mem_ctrls.rdQLenPdf::1                      86                       # What read queue length does an incoming req see
system.mem_ctrls.rdQLenPdf::2                       5                       # What read queue length does an incoming req see
system.mem_ctrls.rdQLenPdf::3                       0                       # What read queue length does an incoming req see
system.mem_ctrls.rdQLenPdf::4                       0                       # What read queue length does an incoming req see
system.mem_ctrls.rdQLenPdf::5                       0                       # What read queue length does an incoming req see
system.mem_ctrls.rdQLenPdf::6                       0                       # What read queue length does an incoming req see
system.mem_ctrls.rdQLenPdf::7                       0                       # What read queue length does an incoming req see
system.mem_ctrls.rdQLenPdf::8                       0                       # What read queue length does an incoming req see
system.mem_ctrls.rdQLenPdf::9                       0                       # What read queue length does an incoming req see
system.mem_ctrls.rdQLenPdf::10                      0                       # What read queue length does an incoming req see
system.mem_ctrls.rdQLenPdf::11                      0                       # What read queue length does an incoming req see
system.mem_ctrls.rdQLenPdf::12                      0                       # What read queue length does an incoming req see
system.mem_ctrls.rdQLenPdf::13                      0                       # What read queue length does an incoming req see
system.mem_ctrls.rdQLenPdf::14                      0                       # What read queue length does an incoming req see
system.mem_ctrls.rdQLenPdf::15                      0                       # What read queue length does an incoming req see
system.mem_ctrls.rdQLenPdf::16                      0                       # What read queue length does an incoming req see
system.mem_ctrls.rdQLenPdf::17                      0                       # What read queue length does an incoming req see
system.mem_ctrls.rdQLenPdf::18                      0                       # What read queue length does an incoming req see
system.mem_ctrls.rdQLenPdf::19                      0                       # What read queue length does an incoming req see
system.mem_ctrls.rdQLenPdf::20                      0                       # What read queue length does an incoming req see
system.mem_ctrls.rdQLenPdf::21                      0                       # What read queue length does an incoming req see
system.mem_ctrls.rdQLenPdf::22                      0                       # What read queue length does an incoming req see
system.mem_ctrls.rdQLenPdf::23                      0                       # What read queue length does an incoming req see
system.mem_ctrls.rdQLenPdf::24                      0                       # What read queue length does an incoming req see
system.mem_ctrls.rdQLenPdf::25                      0                       # What read queue length does an incoming req see
system.mem_ctrls.rdQLenPdf::26                      0                       # What read queue length does an incoming req see
system.mem_ctrls.rdQLenPdf::27                      0                       # What read queue length does an incoming req see
system.mem_ctrls.rdQLenPdf::28                      0                       # What read queue length does an incoming req see
system.mem_ctrls.rdQLenPdf::29                      0                       # What read queue length does an incoming req see
system.mem_ctrls.rdQLenPdf::30                      0                       # What read queue length does an incoming req see
system.mem_ctrls.rdQLenPdf::31                      0                       # What read queue length does an incoming req see
system.mem_ctrls.rdQLenPdf::32                      0                       # What read queue length does an incoming req see
system.mem_ctrls.rdQLenPdf::33                      0                       # What read queue length does an incoming req see
system.mem_ctrls.rdQLenPdf::34                      0                       # What read queue length does an incoming req see
system.mem_ctrls.rdQLenPdf::35                      0                       # What read queue length does an incoming req see
system.mem_ctrls.rdQLenPdf::36                      0                       # What read queue length does an incoming req see
system.mem_ctrls.rdQLenPdf::37                      0                       # What read queue length does an incoming req see
system.mem_ctrls.rdQLenPdf::38                      0                       # What read queue length does an incoming req see
system.mem_ctrls.rdQLenPdf::39                      0                       # What read queue length does an incoming req see
system.mem_ctrls.rdQLenPdf::40                      0                       # What read queue length does an incoming req see
system.mem_ctrls.rdQLenPdf::41                      0                       # What read queue length does an incoming req see
system.mem_ctrls.rdQLenPdf::42                      0                       # What read queue length does an incoming req see
system.mem_ctrls.rdQLenPdf::43                      0                       # What read queue length does an incoming req see
system.mem_ctrls.rdQLenPdf::44                      0                       # What read queue length does an incoming req see
system.mem_ctrls.rdQLenPdf::45                      0                       # What read queue length does an incoming req see
system.mem_ctrls.rdQLenPdf::46                      0                       # What read queue length does an incoming req see
system.mem_ctrls.rdQLenPdf::47                      0                       # What read queue length does an incoming req see
system.mem_ctrls.rdQLenPdf::48                      0                       # What read queue length does an incoming req see
system.mem_ctrls.rdQLenPdf::49                      0                       # What read queue length does an incoming req see
system.mem_ctrls.rdQLenPdf::50                      0                       # What read queue length does an incoming req see
system.mem_ctrls.rdQLenPdf::51                      0                       # What read queue length does an incoming req see
system.mem_ctrls.rdQLenPdf::52                      0                       # What read queue length does an incoming req see
system.mem_ctrls.rdQLenPdf::53                      0                       # What read queue length does an incoming req see
system.mem_ctrls.rdQLenPdf::54                      0                       # What read queue length does an incoming req see
system.mem_ctrls.rdQLenPdf::55                      0                       # What read queue length does an incoming req see
system.mem_ctrls.rdQLenPdf::56                      0                       # What read queue length does an incoming req see
system.mem_ctrls.rdQLenPdf::57                      0                       # What read queue length does an incoming req see
system.mem_ctrls.rdQLenPdf::58                      0                       # What read queue length does an incoming req see
system.mem_ctrls.rdQLenPdf::59                      0                       # What read queue length does an incoming req see
system.mem_ctrls.rdQLenPdf::60                      0                       # What read queue length does an incoming req see
system.mem_ctrls.rdQLenPdf::61                      0                       # What read queue length does an incoming req see
system.mem_ctrls.rdQLenPdf::62                      0                       # What read queue length does an incoming req see
system.mem_ctrls.rdQLenPdf::63                      0                       # What read queue length does an incoming req see
system.mem_ctrls.wrQLenPdf::0                       1                       # What write queue length does an incoming req see
system.mem_ctrls.wrQLenPdf::1                       1                       # What write queue length does an incoming req see
system.mem_ctrls.wrQLenPdf::2                       1                       # What write queue length does an incoming req see
system.mem_ctrls.wrQLenPdf::3                       1                       # What write queue length does an incoming req see
system.mem_ctrls.wrQLenPdf::4                       1                       # What write queue length does an incoming req see
system.mem_ctrls.wrQLenPdf::5                       1                       # What write queue length does an incoming req see
system.mem_ctrls.wrQLenPdf::6                       1                       # What write queue length does an incoming req see
system.mem_ctrls.wrQLenPdf::7                       1                       # What write queue length does an incoming req see
system.mem_ctrls.wrQLenPdf::8                       1                       # What write queue length does an incoming req see
system.mem_ctrls.wrQLenPdf::9                       1                       # What write queue length does an incoming req see
system.mem_ctrls.wrQLenPdf::10                      1                       # What write queue length does an incoming req see
system.mem_ctrls.wrQLenPdf::11                      1                       # What write queue length does an incoming req see
system.mem_ctrls.wrQLenPdf::12                      1                       # What write queue length does an incoming req see
system.mem_ctrls.wrQLenPdf::13                      1                       # What write queue length does an incoming req see
system.mem_ctrls.wrQLenPdf::14                      1                       # What write queue length does an incoming req see
system.mem_ctrls.wrQLenPdf::15                      1                       # What write queue length does an incoming req see
system.mem_ctrls.wrQLenPdf::16                      1                       # What write queue length does an incoming req see
system.mem_ctrls.wrQLenPdf::17                      1                       # What write queue length does an incoming req see
system.mem_ctrls.wrQLenPdf::18                      1                       # What write queue length does an incoming req see
system.mem_ctrls.wrQLenPdf::19                      1                       # What write queue length does an incoming req see
system.mem_ctrls.wrQLenPdf::20                      1                       # What write queue length does an incoming req see
system.mem_ctrls.wrQLenPdf::21                      1                       # What write queue length does an incoming req see
system.mem_ctrls.wrQLenPdf::22                      1                       # What write queue length does an incoming req see
system.mem_ctrls.wrQLenPdf::23                      1                       # What write queue length does an incoming req see
system.mem_ctrls.wrQLenPdf::24                      1                       # What write queue length does an incoming req see
system.mem_ctrls.wrQLenPdf::25                      1                       # What write queue length does an incoming req see
system.mem_ctrls.wrQLenPdf::26                      1                       # What write queue length does an incoming req see
system.mem_ctrls.wrQLenPdf::27                      1                       # What write queue length does an incoming req see
system.mem_ctrls.wrQLenPdf::28                      1                       # What write queue length does an incoming req see
system.mem_ctrls.wrQLenPdf::29                      1                       # What write queue length does an incoming req see
system.mem_ctrls.wrQLenPdf::30                      1                       # What write queue length does an incoming req see
system.mem_ctrls.wrQLenPdf::31                      1                       # What write queue length does an incoming req see
system.mem_ctrls.wrQLenPdf::32                      1                       # What write queue length does an incoming req see
system.mem_ctrls.wrQLenPdf::33                      1                       # What write queue length does an incoming req see
system.mem_ctrls.wrQLenPdf::34                      1                       # What write queue length does an incoming req see
system.mem_ctrls.wrQLenPdf::35                      1                       # What write queue length does an incoming req see
system.mem_ctrls.wrQLenPdf::36                      1                       # What write queue length does an incoming req see
system.mem_ctrls.wrQLenPdf::37                      1                       # What write queue length does an incoming req see
system.mem_ctrls.wrQLenPdf::38                      1                       # What write queue length does an incoming req see
system.mem_ctrls.wrQLenPdf::39                      1                       # What write queue length does an incoming req see
system.mem_ctrls.wrQLenPdf::40                      1                       # What write queue length does an incoming req see
system.mem_ctrls.wrQLenPdf::41                      1                       # What write queue length does an incoming req see
system.mem_ctrls.wrQLenPdf::42                      1                       # What write queue length does an incoming req see
system.mem_ctrls.wrQLenPdf::43                      1                       # What write queue length does an incoming req see
system.mem_ctrls.wrQLenPdf::44                      1                       # What write queue length does an incoming req see
system.mem_ctrls.wrQLenPdf::45                      1                       # What write queue length does an incoming req see
system.mem_ctrls.wrQLenPdf::46                      1                       # What write queue length does an incoming req see
system.mem_ctrls.wrQLenPdf::47                      3                       # What write queue length does an incoming req see
system.mem_ctrls.wrQLenPdf::48                      4                       # What write queue length does an incoming req see
system.mem_ctrls.wrQLenPdf::49                      6                       # What write queue length does an incoming req see
system.mem_ctrls.wrQLenPdf::50                      6                       # What write queue length does an incoming req see
system.mem_ctrls.wrQLenPdf::51                      6                       # What write queue length does an incoming req see
system.mem_ctrls.wrQLenPdf::52                      5                       # What write queue length does an incoming req see
system.mem_ctrls.wrQLenPdf::53                      5                       # What write queue length does an incoming req see
system.mem_ctrls.wrQLenPdf::54                      5                       # What write queue length does an incoming req see
system.mem_ctrls.wrQLenPdf::55                      5                       # What write queue length does an incoming req see
system.mem_ctrls.wrQLenPdf::56                      5                       # What write queue length does an incoming req see
system.mem_ctrls.wrQLenPdf::57                      5                       # What write queue length does an incoming req see
system.mem_ctrls.wrQLenPdf::58                      5                       # What write queue length does an incoming req see
system.mem_ctrls.wrQLenPdf::59                      5                       # What write queue length does an incoming req see
system.mem_ctrls.wrQLenPdf::60                      5                       # What write queue length does an incoming req see
system.mem_ctrls.wrQLenPdf::61                      5                       # What write queue length does an incoming req see
system.mem_ctrls.wrQLenPdf::62                      5                       # What write queue length does an incoming req see
system.mem_ctrls.wrQLenPdf::63                      5                       # What write queue length does an incoming req see
system.mem_ctrls.wrQLenPdf::64                      5                       # What write queue length does an incoming req see
system.mem_ctrls.wrQLenPdf::65                      0                       # What write queue length does an incoming req see
system.mem_ctrls.wrQLenPdf::66                      0                       # What write queue length does an incoming req see
system.mem_ctrls.wrQLenPdf::67                      0                       # What write queue length does an incoming req see
system.mem_ctrls.wrQLenPdf::68                      0                       # What write queue length does an incoming req see
system.mem_ctrls.wrQLenPdf::69                      0                       # What write queue length does an incoming req see
system.mem_ctrls.wrQLenPdf::70                      0                       # What write queue length does an incoming req see
system.mem_ctrls.wrQLenPdf::71                      0                       # What write queue length does an incoming req see
system.mem_ctrls.wrQLenPdf::72                      0                       # What write queue length does an incoming req see
system.mem_ctrls.wrQLenPdf::73                      0                       # What write queue length does an incoming req see
system.mem_ctrls.wrQLenPdf::74                      0                       # What write queue length does an incoming req see
system.mem_ctrls.wrQLenPdf::75                      0                       # What write queue length does an incoming req see
system.mem_ctrls.wrQLenPdf::76                      0                       # What write queue length does an incoming req see
system.mem_ctrls.wrQLenPdf::77                      0                       # What write queue length does an incoming req see
system.mem_ctrls.wrQLenPdf::78                      0                       # What write queue length does an incoming req see
system.mem_ctrls.wrQLenPdf::79                      0                       # What write queue length does an incoming req see
system.mem_ctrls.wrQLenPdf::80                      0                       # What write queue length does an incoming req see
system.mem_ctrls.wrQLenPdf::81                      0                       # What write queue length does an incoming req see
system.mem_ctrls.wrQLenPdf::82                      0                       # What write queue length does an incoming req see
system.mem_ctrls.wrQLenPdf::83                      0                       # What write queue length does an incoming req see
system.mem_ctrls.wrQLenPdf::84                      0                       # What write queue length does an incoming req see
system.mem_ctrls.wrQLenPdf::85                      0                       # What write queue length does an incoming req see
system.mem_ctrls.wrQLenPdf::86                      0                       # What write queue length does an incoming req see
system.mem_ctrls.wrQLenPdf::87                      0                       # What write queue length does an incoming req see
system.mem_ctrls.wrQLenPdf::88                      0                       # What write queue length does an incoming req see
system.mem_ctrls.wrQLenPdf::89                      0                       # What write queue length does an incoming req see
system.mem_ctrls.wrQLenPdf::90                      0                       # What write queue length does an incoming req see
system.mem_ctrls.wrQLenPdf::91                      0                       # What write queue length does an incoming req see
system.mem_ctrls.wrQLenPdf::92                      0                       # What write queue length does an incoming req see
system.mem_ctrls.wrQLenPdf::93                      0                       # What write queue length does an incoming req see
system.mem_ctrls.wrQLenPdf::94                      0                       # What write queue length does an incoming req see
system.mem_ctrls.wrQLenPdf::95                      0                       # What write queue length does an incoming req see
system.mem_ctrls.wrQLenPdf::96                      0                       # What write queue length does an incoming req see
system.mem_ctrls.wrQLenPdf::97                      0                       # What write queue length does an incoming req see
system.mem_ctrls.wrQLenPdf::98                      0                       # What write queue length does an incoming req see
system.mem_ctrls.wrQLenPdf::99                      0                       # What write queue length does an incoming req see
system.mem_ctrls.wrQLenPdf::100                     0                       # What write queue length does an incoming req see
system.mem_ctrls.wrQLenPdf::101                     0                       # What write queue length does an incoming req see
system.mem_ctrls.wrQLenPdf::102                     0                       # What write queue length does an incoming req see
system.mem_ctrls.wrQLenPdf::103                     0                       # What write queue length does an incoming req see
system.mem_ctrls.wrQLenPdf::104                     0                       # What write queue length does an incoming req see
system.mem_ctrls.wrQLenPdf::105                     0                       # What write queue length does an incoming req see
system.mem_ctrls.wrQLenPdf::106                     0                       # What write queue length does an incoming req see
system.mem_ctrls.wrQLenPdf::107                     0                       # What write queue length does an incoming req see
system.mem_ctrls.wrQLenPdf::108                     0                       # What write queue length does an incoming req see
system.mem_ctrls.wrQLenPdf::109                     0                       # What write queue length does an incoming req see
[...]
system.mem_ctrls.dram.bw_read::total         65451872                       # Total read bandwidth from this memory (bytes/s)
system.mem_ctrls.dram.bw_inst_read::.cpu.inst     50328205                       # Instruction read bandwidth from this memory (bytes/s)
system.mem_ctrls.dram.bw_inst_read::total     50328205                       # Instruction read bandwidth from this memory (bytes/s)
system.mem_ctrls.dram.bw_total::.cpu.inst     50328205                       # Total bandwidth to/from this memory (bytes/s)
system.mem_ctrls.dram.bw_total::.cpu.data     15123667                       # Total bandwidth to/from this memory (bytes/s)
system.mem_ctrls.dram.bw_total::total        65451872                       # Total bandwidth to/from this memory (bytes/s)
system.mem_ctrls.dram.readBursts                  596                       # Number of DRAM read bursts
system.mem_ctrls.dram.writeBursts                  85                       # Number of DRAM write bursts
system.mem_ctrls.dram.perBankRdBursts::0           49                       # Per bank write bursts
system.mem_ctrls.dram.perBankRdBursts::1            2                       # Per bank write bursts
system.mem_ctrls.dram.perBankRdBursts::2           24                       # Per bank write bursts
system.mem_ctrls.dram.perBankRdBursts::3           46                       # Per bank write bursts
system.mem_ctrls.dram.perBankRdBursts::4            8                       # Per bank write bursts
system.mem_ctrls.dram.perBankRdBursts::5           20                       # Per bank write bursts
system.mem_ctrls.dram.perBankRdBursts::6           49                       # Per bank write bursts
system.mem_ctrls.dram.perBankRdBursts::7           35                       # Per bank write bursts
system.mem_ctrls.dram.perBankRdBursts::8           44                       # Per bank write bursts
system.mem_ctrls.dram.perBankRdBursts::9           84                       # Per bank write bursts
system.mem_ctrls.dram.perBankRdBursts::10           48                       # Per bank write bursts
system.mem_ctrls.dram.perBankRdBursts::11           64                       # Per bank write bursts
system.mem_ctrls.dram.perBankRdBursts::12           21                       # Per bank write bursts
system.mem_ctrls.dram.perBankRdBursts::13            1                       # Per bank write bursts
system.mem_ctrls.dram.perBankRdBursts::14            0                       # Per bank write bursts
system.mem_ctrls.dram.perBankRdBursts::15            0                       # Per bank write bursts
system.mem_ctrls.dram.perBankRdBursts::16           13                       # Per bank write bursts
system.mem_ctrls.dram.perBankRdBursts::17            0                       # Per bank write bursts
system.mem_ctrls.dram.perBankRdBursts::18            0                       # Per bank write bursts
system.mem_ctrls.dram.perBankRdBursts::19            0                       # Per bank write bursts
system.mem_ctrls.dram.perBankRdBursts::20           13                       # Per bank write bursts
system.mem_ctrls.dram.perBankRdBursts::21            7                       # Per bank write bursts
system.mem_ctrls.dram.perBankRdBursts::22            8                       # Per bank write bursts
system.mem_ctrls.dram.perBankRdBursts::23            4                       # Per bank write bursts
system.mem_ctrls.dram.perBankRdBursts::24           27                       # Per bank write bursts
system.mem_ctrls.dram.perBankRdBursts::25            2                       # Per bank write bursts
system.mem_ctrls.dram.perBankRdBursts::26            0                       # Per bank write bursts
system.mem_ctrls.dram.perBankRdBursts::27            6                       # Per bank write bursts
system.mem_ctrls.dram.perBankRdBursts::28            7                       # Per bank write bursts
system.mem_ctrls.dram.perBankRdBursts::29            5                       # Per bank write bursts
system.mem_ctrls.dram.perBankRdBursts::30            9                       # Per bank write bursts
system.mem_ctrls.dram.perBankRdBursts::31            0                       # Per bank write bursts
system.mem_ctrls.dram.perBankWrBursts::0           16                       # Per bank write bursts
system.mem_ctrls.dram.perBankWrBursts::1            0                       # Per bank write bursts
system.mem_ctrls.dram.perBankWrBursts::2           14                       # Per bank write bursts
system.mem_ctrls.dram.perBankWrBursts::3            0                       # Per bank write bursts
system.mem_ctrls.dram.perBankWrBursts::4            1                       # Per bank write bursts
system.mem_ctrls.dram.perBankWrBursts::5            0                       # Per bank write bursts
system.mem_ctrls.dram.perBankWrBursts::6            0                       # Per bank write bursts
system.mem_ctrls.dram.perBankWrBursts::7            6                       # Per bank write bursts
system.mem_ctrls.dram.perBankWrBursts::8            7                       # Per bank write bursts
system.mem_ctrls.dram.perBankWrBursts::9            6                       # Per bank write bursts
system.mem_ctrls.dram.perBankWrBursts::10            0                       # Per bank write bursts
system.mem_ctrls.dram.perBankWrBursts::11            5                       # Per bank write bursts
system.mem_ctrls.dram.perBankWrBursts::12           10                       # Per bank write bursts
system.mem_ctrls.dram.perBankWrBursts::13            0                       # Per bank write bursts
system.mem_ctrls.dram.perBankWrBursts::14            0                       # Per bank write bursts
system.mem_ctrls.dram.perBankWrBursts::15            0                       # Per bank write bursts
system.mem_ctrls.dram.perBankWrBursts::16            0                       # Per bank write bursts
system.mem_ctrls.dram.perBankWrBursts::17            0                       # Per bank write bursts
system.mem_ctrls.dram.perBankWrBursts::18            0                       # Per bank write bursts
system.mem_ctrls.dram.perBankWrBursts::19            0                       # Per bank write bursts
system.mem_ctrls.dram.perBankWrBursts::20            0                       # Per bank write bursts
system.mem_ctrls.dram.perBankWrBursts::21            1                       # Per bank write bursts
system.mem_ctrls.dram.perBankWrBursts::22            2                       # Per bank write bursts
system.mem_ctrls.dram.perBankWrBursts::23            0                       # Per bank write bursts
system.mem_ctrls.dram.perBankWrBursts::24           11                       # Per bank write bursts
system.mem_ctrls.dram.perBankWrBursts::25            0                       # Per bank write bursts
system.mem_ctrls.dram.perBankWrBursts::26            0                       # Per bank write bursts
system.mem_ctrls.dram.perBankWrBursts::27            6                       # Per bank write bursts
system.mem_ctrls.dram.perBankWrBursts::28            0                       # Per bank write bursts
system.mem_ctrls.dram.perBankWrBursts::29            0                       # Per bank write bursts
system.mem_ctrls.dram.perBankWrBursts::30            0                       # Per bank write bursts
system.mem_ctrls.dram.perBankWrBursts::31            0                       # Per bank write bursts
system.mem_ctrls.dram.totQLat                 3756854                       # Total ticks spent queuing
system.mem_ctrls.dram.totBusLat               1985872                       # Total ticks spent in databus transfers
system.mem_ctrls.dram.totMemAccLat           14182086                       # Total ticks spent from burst creation until serviced by the DRAM
system.mem_ctrls.dram.avgQLat                 6303.45                       # Average queueing delay per DRAM burst
system.mem_ctrls.dram.avgBusLat               3332.00                       # Average bus latency per DRAM burst
system.mem_ctrls.dram.avgMemAccLat           23795.45                       # Average memory access latency per DRAM burst
system.mem_ctrls.dram.readRowHits                 492                       # Number of row buffer hits during reads
system.mem_ctrls.dram.writeRowHits                 70                       # Number of row buffer hits during writes
system.mem_ctrls.dram.readRowHitRate            82.55                       # Row buffer hit rate for reads
system.mem_ctrls.dram.writeRowHitRate           82.35                       # Row buffer hit rate for writes
system.mem_ctrls.dram.bytesPerActivate::samples          102                       # Bytes accessed per row activation
system.mem_ctrls.dram.bytesPerActivate::mean   373.960784                       # Bytes accessed per row activation
system.mem_ctrls.dram.bytesPerActivate::gmean   265.054521                       # Bytes accessed per row activation
system.mem_ctrls.dram.bytesPerActivate::stdev   306.701258                       # Bytes accessed per row activation
system.mem_ctrls.dram.bytesPerActivate::0-127           14     13.73%     13.73% # Bytes accessed per row activation
system.mem_ctrls.dram.bytesPerActivate::128-255           28     27.45%     41.18% # Bytes accessed per row activation
system.mem_ctrls.dram.bytesPerActivate::256-383           19     18.63%     59.80% # Bytes accessed per row activation
system.mem_ctrls.dram.bytesPerActivate::384-511           14     13.73%     73.53% # Bytes accessed per row activation
system.mem_ctrls.dram.bytesPerActivate::512-639            8      7.84%     81.37% # Bytes accessed per row activation
system.mem_ctrls.dram.bytesPerActivate::640-767            3      2.94%     84.31% # Bytes accessed per row activation
system.mem_ctrls.dram.bytesPerActivate::768-895            2      1.96%     86.27% # Bytes accessed per row activation
system.mem_ctrls.dram.bytesPerActivate::896-1023            2      1.96%     88.24% # Bytes accessed per row activation
system.mem_ctrls.dram.bytesPerActivate::1024-1151           12     11.76%    100.00% # Bytes accessed per row activation
system.mem_ctrls.dram.bytesPerActivate::total          102                       # Bytes accessed per row activation
system.mem_ctrls.dram.bytesRead                 38144                       # Total number of bytes read from DRAM
system.mem_ctrls.dram.bytesWritten               5440                       # Total number of bytes written to DRAM
system.mem_ctrls.dram.avgRdBW               50.076143                       # Average DRAM read bandwidth in MiBytes/s
system.mem_ctrls.dram.avgWrBW                7.141732                       # Average DRAM write bandwidth in MiBytes/s
system.mem_ctrls.dram.peakBW                 19207.00                       # Theoretical peak bandwidth in MiByte/s
system.mem_ctrls.dram.busUtil                    0.30                       # Data bus utilization in percentage
system.mem_ctrls.dram.busUtilRead                0.26                       # Data bus utilization in percentage for reads
system.mem_ctrls.dram.busUtilWrite               0.04                       # Data bus utilization in percentage for writes
system.mem_ctrls.dram.pageHitRate               82.53                       # Row buffer hit rate, read and write combined
system.mem_ctrls.dram.power_state.pwrStateResidencyTicks::UNDEFINED    761720000                       # Cumulative time (in ticks) in various power states
system.mem_ctrls.dram.rank0.actEnergy    137225.088000                       # Energy for activate commands per rank (pJ)
system.mem_ctrls.dram.rank0.preEnergy    211973.176800                       # Energy for precharge commands per rank (pJ)
system.mem_ctrls.dram.rank0.readEnergy   1357736.688000                       # Energy for read commands per rank (pJ)
system.mem_ctrls.dram.rank0.writeEnergy  153338.640000                       # Energy for write commands per rank (pJ)
system.mem_ctrls.dram.rank0.refreshEnergy 65557988.311200                       # Energy for refresh commands per rank (pJ)
system.mem_ctrls.dram.rank0.actBackEnergy 34597479.470400                       # Energy for active background per rank (pJ)
system.mem_ctrls.dram.rank0.preBackEnergy 224740915.660800                       # Energy for precharge background per rank (pJ)
system.mem_ctrls.dram.rank0.actPowerDownEnergy            0                       # Energy for active power-down per rank (pJ)
system.mem_ctrls.dram.rank0.prePowerDownEnergy            0                       # Energy for precharge power-down per rank (pJ)
system.mem_ctrls.dram.rank0.selfRefreshEnergy            0                       # Energy for self refresh per rank (pJ)
system.mem_ctrls.dram.rank0.totalEnergy  326756657.035200                       # Total energy per rank (pJ)
system.mem_ctrls.dram.rank0.averagePower   428.972138                       # Core power per rank (mW)
system.mem_ctrls.dram.rank0.totalIdleTime            0                       # Total Idle time Per DRAM Rank
system.mem_ctrls.dram.rank0.pwrStateTime::IDLE    687167120                       # Time in different power states
system.mem_ctrls.dram.rank0.pwrStateTime::REF     33950000                       # Time in different power states
system.mem_ctrls.dram.rank0.pwrStateTime::SREF            0                       # Time in different power states
system.mem_ctrls.dram.rank0.pwrStateTime::PRE_PDN            0                       # Time in different power states
system.mem_ctrls.dram.rank0.pwrStateTime::ACT     40602880                       # Time in different power states
system.mem_ctrls.dram.rank0.pwrStateTime::ACT_PDN            0                       # Time in different power states
system.mem_ctrls.dram.rank1.actEnergy    48340.656000                       # Energy for activate commands per rank (pJ)
system.mem_ctrls.dram.rank1.preEnergy    68822.460000                       # Energy for precharge commands per rank (pJ)
system.mem_ctrls.dram.rank1.readEnergy   277033.142400                       # Energy for read commands per rank (pJ)
system.mem_ctrls.dram.rank1.writeEnergy  47181.120000                       # Energy for write commands per rank (pJ)
system.mem_ctrls.dram.rank1.refreshEnergy 65557988.311200                       # Energy for refresh commands per rank (pJ)
system.mem_ctrls.dram.rank1.actBackEnergy 30034027.581600                       # Energy for active background per rank (pJ)
system.mem_ctrls.dram.rank1.preBackEnergy 227891318.995200                       # Energy for precharge background per rank (pJ)
system.mem_ctrls.dram.rank1.actPowerDownEnergy            0                       # Energy for active power-down per rank (pJ)
system.mem_ctrls.dram.rank1.prePowerDownEnergy            0                       # Energy for precharge power-down per rank (pJ)
system.mem_ctrls.dram.rank1.selfRefreshEnergy            0                       # Energy for self refresh per rank (pJ)
system.mem_ctrls.dram.rank1.totalEnergy  323924712.266400                       # Total energy per rank (pJ)
system.mem_ctrls.dram.rank1.averagePower   425.254309                       # Core power per rank (mW)
system.mem_ctrls.dram.rank1.totalIdleTime            0                       # Total Idle time Per DRAM Rank
system.mem_ctrls.dram.rank1.pwrStateTime::IDLE    696832960                       # Time in different power states
system.mem_ctrls.dram.rank1.pwrStateTime::REF     33950000                       # Time in different power states
system.mem_ctrls.dram.rank1.pwrStateTime::SREF            0                       # Time in different power states
system.mem_ctrls.dram.rank1.pwrStateTime::PRE_PDN            0                       # Time in different power states
system.mem_ctrls.dram.rank1.pwrStateTime::ACT     30937040                       # Time in different power states
system.mem_ctrls.dram.rank1.pwrStateTime::ACT_PDN            0                       # Time in different power states
system.mem_ctrls.power_state.pwrStateResidencyTicks::UNDEFINED    761720000                       # Cumulative time (in ticks) in various power states
system.membus.trans_dist::ReadResp                708                       # Transaction distribution
system.membus.trans_dist::WritebackClean          287                       # Transaction distribution
system.membus.trans_dist::ReadExReq                71                       # Transaction distribution
system.membus.trans_dist::ReadExResp               71                       # Transaction distribution
system.membus.trans_dist::ReadCleanReq            599                       # Transaction distribution
system.membus.trans_dist::ReadSharedReq           109                       # Transaction distribution
system.membus.pkt_count_system.cpu.icache.mem_side_port::system.mem_ctrls.port         1485                       # Packet count per connected requestor and responder (bytes)
system.membus.pkt_count_system.cpu.dcache.mem_side_port::system.mem_ctrls.port          360                       # Packet count per connected requestor and responder (bytes)
system.membus.pkt_count::total                   1845                       # Packet count per connected requestor and responder (bytes)
system.membus.pkt_size_system.cpu.icache.mem_side_port::system.mem_ctrls.port        56704                       # Cumulative packet size per connected requestor and responder (bytes)
system.membus.pkt_size_system.cpu.dcache.mem_side_port::system.mem_ctrls.port        11520                       # Cumulative packet size per connected requestor and responder (bytes)
system.membus.pkt_size::total                   68224                       # Cumulative packet size per connected requestor and responder (bytes)
system.membus.snoops                                0                       # Total snoops (count)
system.membus.snoopTraffic                          0                       # Total snoop traffic (bytes)
system.membus.snoop_fanout::samples               779                       # Request fanout histogram
system.membus.snoop_fanout::mean             0.033376                       # Request fanout histogram
system.membus.snoop_fanout::stdev            0.179732                       # Request fanout histogram
system.membus.snoop_fanout::underflows              0      0.00%      0.00% # Request fanout histogram
system.membus.snoop_fanout::0                     753     96.66%     96.66% # Request fanout histogram
system.membus.snoop_fanout::1                      26      3.34%    100.00% # Request fanout histogram
system.membus.snoop_fanout::2                       0      0.00%    100.00% # Request fanout histogram
system.membus.snoop_fanout::overflows               0      0.00%    100.00% # Request fanout histogram
system.membus.snoop_fanout::min_value               0                       # Request fanout histogram
system.membus.snoop_fanout::max_value               1                       # Request fanout histogram
system.membus.snoop_fanout::total                 779                       # Request fanout histogram
system.membus.power_state.pwrStateResidencyTicks::UNDEFINED    761720000                       # Cumulative time (in ticks) in various power states
system.membus.reqLayer0.occupancy             2329000                       # Layer occupancy (ticks)
system.membus.reqLayer0.utilization               0.3                       # Layer utilization (%)
system.membus.respLayer1.occupancy            3196722                       # Layer occupancy (ticks)
system.membus.respLayer1.utilization              0.4                       # Layer utilization (%)
system.membus.respLayer2.occupancy             972616                       # Layer occupancy (ticks)
system.membus.respLayer2.utilization              0.1                       # Layer utilization (%)
system.voltage_domain.voltage                       1                       # Voltage in Volts

---------- End Simulation Statistics   ----------
