
---------- Begin Simulation Statistics ----------
final_tick                                 1494099000                       # Number of ticks from beginning of simulation (restored from checkpoints and never reset)
host_inst_rate                                 315311                       # Simulator instruction rate (inst/s)
host_mem_usage                                 653252                       # Number of bytes of host memory used
host_op_rate                                   422270                       # Simulator op (including micro ops) rate (op/s)
host_seconds                                     3.24                       # Real time elapsed on the host
host_tick_rate                              460511609                       # Simulator tick rate (ticks/s)
sim_freq                                 1000000000000                       # Frequency of simulated ticks
sim_insts                                     1022977                       # Number of instructions simulated
sim_ops                                       1370020                       # Number of ops (including micro ops) simulated
sim_seconds                                  0.001494                       # Number of seconds simulated
sim_ticks                                  1494099000                       # Number of ticks simulated
system.cpu.committedInsts                     1022977                       # Number of instructions committed
system.cpu.committedOps                       1370020                       # Number of ops (including micro ops) committed
system.cpu.cpi                               1.460540                       # CPI: cycles per instruction
system.cpu.discardedOps                         19951                       # Number of ops (including micro ops) which were discarded before commit
system.cpu.idleCycles                           33900                       # Total number of cycles that the object has spent stopped
system.cpu.ipc                               0.684678                       # IPC: instructions per cycle
system.cpu.numCycles                          1494099                       # number of cpu cycles simulated
system.cpu.numFetchSuspends                         0                       # Number of times Execute suspended instruction fetching
system.cpu.numWorkItemsCompleted                    0                       # number of work items this cpu completed
system.cpu.numWorkItemsStarted                      0                       # number of work items this cpu started
system.cpu.op_class_0::No_OpClass                   0      0.00%      0.00% # Class of committed instruction
system.cpu.op_class_0::IntAlu                  875518     63.91%     63.91% # Class of committed instruction
system.cpu.op_class_0::IntMult                    144      0.01%     63.92% # Class of committed instruction
system.cpu.op_class_0::IntDiv                       0      0.00%     63.92% # Class of committed instruction
system.cpu.op_class_0::FloatAdd                     0      0.00%     63.92% # Class of committed instruction
system.cpu.op_class_0::FloatCmp                     0      0.00%     63.92% # Class of committed instruction
system.cpu.op_class_0::FloatCvt                     0      0.00%     63.92% # Class of committed instruction
system.cpu.op_class_0::FloatMult                    0      0.00%     63.92% # Class of committed instruction
system.cpu.op_class_0::FloatMultAcc                 0      0.00%     63.92% # Class of committed instruction
system.cpu.op_class_0::FloatDiv                     0      0.00%     63.92% # Class of committed instruction
system.cpu.op_class_0::FloatMisc                    0      0.00%     63.92% # Class of committed instruction
system.cpu.op_class_0::FloatSqrt                    0      0.00%     63.92% # Class of committed instruction
system.cpu.op_class_0::SimdAdd                      0      0.00%     63.92% # Class of committed instruction
system.cpu.op_class_0::SimdAddAcc                   0      0.00%     63.92% # Class of committed instruction
system.cpu.op_class_0::SimdAlu                      0      0.00%     63.92% # Class of committed instruction
system.cpu.op_class_0::SimdCmp                      0      0.00%     63.92% # Class of committed instruction
system.cpu.op_class_0::SimdCvt                      0      0.00%     63.92% # Class of committed instruction
system.cpu.op_class_0::SimdMisc                     0      0.00%     63.92% # Class of committed instruction
system.cpu.op_class_0::SimdMult                     0      0.00%     63.92% # Class of committed instruction
system.cpu.op_class_0::SimdMultAcc                  0      0.00%     63.92% # Class of committed instruction
system.cpu.op_class_0::SimdShift                    0      0.00%     63.92% # Class of committed instruction
system.cpu.op_class_0::SimdShiftAcc                 0      0.00%     63.92% # Class of committed instruction
system.cpu.op_class_0::SimdDiv                      0      0.00%     63.92% # Class of committed instruction
system.cpu.op_class_0::SimdSqrt                     0      0.00%     63.92% # Class of committed instruction
system.cpu.op_class_0::SimdFloatAdd                 0      0.00%     63.92% # Class of committed instruction
system.cpu.op_class_0::SimdFloatAlu                 0      0.00%     63.92% # Class of committed instruction
system.cpu.op_class_0::SimdFloatCmp                 0      0.00%     63.92% # Class of committed instruction
system.cpu.op_class_0::SimdFloatCvt                 0      0.00%     63.92% # Class of committed instruction
system.cpu.op_class_0::SimdFloatDiv                 0      0.00%     63.92% # Class of committed instruction
system.cpu.op_class_0::SimdFloatMisc               21      0.00%     63.92% # Class of committed instruction
system.cpu.op_class_0::SimdFloatMult                0      0.00%     63.92% # Class of committed instruction
system.cpu.op_class_0::SimdFloatMultAcc             0      0.00%     63.92% # Class of committed instruction
system.cpu.op_class_0::SimdFloatSqrt                0      0.00%     63.92% # Class of committed instruction
system.cpu.op_class_0::SimdReduceAdd                0      0.00%     63.92% # Class of committed instruction
system.cpu.op_class_0::SimdReduceAlu                0      0.00%     63.92% # Class of committed instruction
system.cpu.op_class_0::SimdReduceCmp                0      0.00%     63.92% # Class of committed instruction
system.cpu.op_class_0::SimdFloatReduceAdd            0      0.00%     63.92% # Class of committed instruction
system.cpu.op_class_0::SimdFloatReduceCmp            0      0.00%     63.92% # Class of committed instruction
system.cpu.op_class_0::SimdAes                      0      0.00%     63.92% # Class of committed instruction
system.cpu.op_class_0::SimdAesMix                   0      0.00%     63.92% # Class of committed instruction
system.cpu.op_class_0::SimdSha1Hash                 0      0.00%     63.92% # Class of committed instruction
system.cpu.op_class_0::SimdSha1Hash2                0      0.00%     63.92% # Class of committed instruction
system.cpu.op_class_0::SimdSha256Hash               0      0.00%     63.92% # Class of committed instruction
system.cpu.op_class_0::SimdSha256Hash2              0      0.00%     63.92% # Class of committed instruction
system.cpu.op_class_0::SimdShaSigma2                0      0.00%     63.92% # Class of committed instruction
system.cpu.op_class_0::SimdShaSigma3                0      0.00%     63.92% # Class of committed instruction
system.cpu.op_class_0::SimdPredAlu                  0      0.00%     63.92% # Class of committed instruction
system.cpu.op_class_0::MemRead                 261527     19.09%     83.01% # Class of committed instruction
system.cpu.op_class_0::MemWrite                232810     16.99%    100.00% # Class of committed instruction
system.cpu.op_class_0::FloatMemRead                 0      0.00%    100.00% # Class of committed instruction
system.cpu.op_class_0::FloatMemWrite                0      0.00%    100.00% # Class of committed instruction
system.cpu.op_class_0::IprAccess                    0      0.00%    100.00% # Class of committed instruction
system.cpu.op_class_0::InstPrefetch                 0      0.00%    100.00% # Class of committed instruction
system.cpu.op_class_0::total                  1370020                       # Class of committed instruction
system.cpu.tickCycles                         1460199                       # Number of cycles that the object actually ticked
system.cpu.workload.numSyscalls                    11                       # Number of system calls
system.membus.snoop_filter.hit_multi_requests            9                       # Number of requests hitting in the snoop filter with multiple (>1) holders of the requested data.
system.membus.snoop_filter.hit_multi_snoops            0                       # Number of snoops hitting in the snoop filter with multiple (>1) holders of the requested data.
system.membus.snoop_filter.hit_single_requests          304                       # Number of requests hitting in the snoop filter with a single holder of the requested data.
system.membus.snoop_filter.hit_single_snoops            0                       # Number of snoops hitting in the snoop filter with a single holder of the requested data.
system.membus.snoop_filter.tot_requests          1066                       # Total number of requests made to the snoop filter.
system.membus.snoop_filter.tot_snoops               0                       # Total number of snoops made to the snoop filter.
system.clk_domain.clock                          1000                       # Clock period in ticks
system.cpu.branchPred.lookups                  214017                       # Number of BP lookups
system.cpu.branchPred.condPredicted             61453                       # Number of conditional branches predicted
system.cpu.branchPred.condIncorrect              5138                       # Number of conditional branches incorrect
system.cpu.branchPred.BTBLookups               124185                       # Number of BTB lookups
system.cpu.branchPred.BTBHits                  123128                       # Number of BTB hits
system.cpu.branchPred.BTBHitPct             99.148851                       # BTB Hit Percentage
system.cpu.branchPred.RASUsed                   61890                       # Number of times the RAS was used to get a target.
system.cpu.branchPred.RASIncorrect                  2                       # Number of incorrect RAS predictions.
system.cpu.branchPred.indirectLookups             349                       # Number of indirect predictor lookups.
system.cpu.branchPred.indirectHits                129                       # Number of indirect target hits.
system.cpu.branchPred.indirectMisses              220                       # Number of indirect misses.
system.cpu.branchPred.indirectMispredicted           68                       # Number of mispredicted indirect branches.
system.cpu.dcache.demand_hits::.cpu.data       452142                       # number of demand (read+write) hits
system.cpu.dcache.demand_hits::total           452142                       # number of demand (read+write) hits
system.cpu.dcache.overall_hits::.cpu.data       452162                       # number of overall hits
system.cpu.dcache.overall_hits::total          452162                       # number of overall hits
system.cpu.dcache.demand_misses::.cpu.data          230                       # number of demand (read+write) misses
system.cpu.dcache.demand_misses::total            230                       # number of demand (read+write) misses
system.cpu.dcache.overall_misses::.cpu.data          239                       # number of overall misses
system.cpu.dcache.overall_misses::total           239                       # number of overall misses
system.cpu.dcache.demand_miss_latency::.cpu.data     13580000                       # number of demand (read+write) miss cycles
system.cpu.dcache.demand_miss_latency::total     13580000                       # number of demand (read+write) miss cycles
system.cpu.dcache.overall_miss_latency::.cpu.data     13580000                       # number of overall miss cycles
system.cpu.dcache.overall_miss_latency::total     13580000                       # number of overall miss cycles
system.cpu.dcache.demand_accesses::.cpu.data       452372                       # number of demand (read+write) accesses
system.cpu.dcache.demand_accesses::total       452372                       # number of demand (read+write) accesses
system.cpu.dcache.overall_accesses::.cpu.data       452401                       # number of overall (read+write) accesses
system.cpu.dcache.overall_accesses::total       452401                       # number of overall (read+write) accesses
system.cpu.dcache.demand_miss_rate::.cpu.data     0.000508                       # miss rate for demand accesses
system.cpu.dcache.demand_miss_rate::total     0.000508                       # miss rate for demand accesses
system.cpu.dcache.overall_miss_rate::.cpu.data     0.000528                       # miss rate for overall accesses
system.cpu.dcache.overall_miss_rate::total     0.000528                       # miss rate for overall accesses
system.cpu.dcache.demand_avg_miss_latency::.cpu.data 59043.478261                       # average overall miss latency
system.cpu.dcache.demand_avg_miss_latency::total 59043.478261                       # average overall miss latency
system.cpu.dcache.overall_avg_miss_latency::.cpu.data 56820.083682                       # average overall miss latency
system.cpu.dcache.overall_avg_miss_latency::total 56820.083682                       # average overall miss latency
system.cpu.dcache.blocked_cycles::no_mshrs            0                       # number of cycles access was blocked
system.cpu.dcache.blocked_cycles::no_targets            0                       # number of cycles access was blocked
system.cpu.dcache.blocked::no_mshrs                 0                       # number of cycles access was blocked
system.cpu.dcache.blocked::no_targets               0                       # number of cycles access was blocked
system.cpu.dcache.avg_blocked_cycles::no_mshrs          nan                       # average number of cycles each access was blocked
system.cpu.dcache.avg_blocked_cycles::no_targets          nan                       # average number of cycles each access was blocked
system.cpu.dcache.demand_mshr_hits::.cpu.data           56                       # number of demand (read+write) MSHR hits
system.cpu.dcache.demand_mshr_hits::total           56                       # number of demand (read+write) MSHR hits
system.cpu.dcache.overall_mshr_hits::.cpu.data           56                       # number of overall MSHR hits
system.cpu.dcache.overall_mshr_hits::total           56                       # number of overall MSHR hits
system.cpu.dcache.demand_mshr_misses::.cpu.data          174                       # number of demand (read+write) MSHR misses
system.cpu.dcache.demand_mshr_misses::total          174                       # number of demand (read+write) MSHR misses
system.cpu.dcache.overall_mshr_misses::.cpu.data          180                       # number of overall MSHR misses
system.cpu.dcache.overall_mshr_misses::total          180                       # number of overall MSHR misses
system.cpu.dcache.demand_mshr_miss_latency::.cpu.data     10151000                       # number of demand (read+write) MSHR miss cycles
system.cpu.dcache.demand_mshr_miss_latency::total     10151000                       # number of demand (read+write) MSHR miss cycles
system.cpu.dcache.overall_mshr_miss_latency::.cpu.data     10487000                       # number of overall MSHR miss cycles
system.cpu.dcache.overall_mshr_miss_latency::total     10487000                       # number of overall MSHR miss cycles
system.cpu.dcache.demand_mshr_miss_rate::.cpu.data     0.000385                       # mshr miss rate for demand accesses
system.cpu.dcache.demand_mshr_miss_rate::total     0.000385                       # mshr miss rate for demand accesses
system.cpu.dcache.overall_mshr_miss_rate::.cpu.data     0.000398                       # mshr miss rate for overall accesses
system.cpu.dcache.overall_mshr_miss_rate::total     0.000398                       # mshr miss rate for overall accesses
system.cpu.dcache.demand_avg_mshr_miss_latency::.cpu.data 58339.080460                       # average overall mshr miss latency
system.cpu.dcache.demand_avg_mshr_miss_latency::total 58339.080460                       # average overall mshr miss latency
system.cpu.dcache.overall_avg_mshr_miss_latency::.cpu.data 58261.111111                       # average overall mshr miss latency
system.cpu.dcache.overall_avg_mshr_miss_latency::total 58261.111111                       # average overall mshr miss latency
system.cpu.dcache.replacements                      0                       # number of replacements
system.cpu.dcache.ReadReq_hits::.cpu.data       219647                       # number of ReadReq hits
system.cpu.dcache.ReadReq_hits::total          219647                       # number of ReadReq hits
system.cpu.dcache.ReadReq_misses::.cpu.data          109                       # number of ReadReq misses
system.cpu.dcache.ReadReq_misses::total           109                       # number of ReadReq misses
system.cpu.dcache.ReadReq_miss_latency::.cpu.data      6703000                       # number of ReadReq miss cycles
system.cpu.dcache.ReadReq_miss_latency::total      6703000                       # number of ReadReq miss cycles
system.cpu.dcache.ReadReq_accesses::.cpu.data       219756                       # number of ReadReq accesses(hits+misses)
system.cpu.dcache.ReadReq_accesses::total       219756                       # number of ReadReq accesses(hits+misses)
system.cpu.dcache.ReadReq_miss_rate::.cpu.data     0.000496                       # miss rate for ReadReq accesses
system.cpu.dcache.ReadReq_miss_rate::total     0.000496                       # miss rate for ReadReq accesses
system.cpu.dcache.ReadReq_avg_miss_latency::.cpu.data 61495.412844                       # average ReadReq miss latency
system.cpu.dcache.ReadReq_avg_miss_latency::total 61495.412844                       # average ReadReq miss latency
system.cpu.dcache.ReadReq_mshr_hits::.cpu.data            6                       # number of ReadReq MSHR hits
system.cpu.dcache.ReadReq_mshr_hits::total            6                       # number of ReadReq MSHR hits
system.cpu.dcache.ReadReq_mshr_misses::.cpu.data          103                       # number of ReadReq MSHR misses
system.cpu.dcache.ReadReq_mshr_misses::total          103                       # number of ReadReq MSHR misses
system.cpu.dcache.ReadReq_mshr_miss_latency::.cpu.data      6181000                       # number of ReadReq MSHR miss cycles
system.cpu.dcache.ReadReq_mshr_miss_latency::total      6181000                       # number of ReadReq MSHR miss cycles
system.cpu.dcache.ReadReq_mshr_miss_rate::.cpu.data     0.000469                       # mshr miss rate for ReadReq accesses
system.cpu.dcache.ReadReq_mshr_miss_rate::total     0.000469                       # mshr miss rate for ReadReq accesses
system.cpu.dcache.ReadReq_avg_mshr_miss_latency::.cpu.data 60009.708738                       # average ReadReq mshr miss latency
system.cpu.dcache.ReadReq_avg_mshr_miss_latency::total 60009.708738                       # average ReadReq mshr miss latency
system.cpu.dcache.WriteReq_hits::.cpu.data       232495                       # number of WriteReq hits
system.cpu.dcache.WriteReq_hits::total         232495                       # number of WriteReq hits
system.cpu.dcache.WriteReq_misses::.cpu.data          121                       # number of WriteReq misses
system.cpu.dcache.WriteReq_misses::total          121                       # number of WriteReq misses
system.cpu.dcache.WriteReq_miss_latency::.cpu.data      6877000                       # number of WriteReq miss cycles
system.cpu.dcache.WriteReq_miss_latency::total      6877000                       # number of WriteReq miss cycles
system.cpu.dcache.WriteReq_accesses::.cpu.data       232616                       # number of WriteReq accesses(hits+misses)
system.cpu.dcache.WriteReq_accesses::total       232616                       # number of WriteReq accesses(hits+misses)
system.cpu.dcache.WriteReq_miss_rate::.cpu.data     0.000520                       # miss rate for WriteReq accesses
system.cpu.dcache.WriteReq_miss_rate::total     0.000520                       # miss rate for WriteReq accesses
system.cpu.dcache.WriteReq_avg_miss_latency::.cpu.data 56834.710744                       # average WriteReq miss latency
system.cpu.dcache.WriteReq_avg_miss_latency::total 56834.710744                       # average WriteReq miss latency
system.cpu.dcache.WriteReq_mshr_hits::.cpu.data           50                       # number of WriteReq MSHR hits
system.cpu.dcache.WriteReq_mshr_hits::total           50                       # number of WriteReq MSHR hits
system.cpu.dcache.WriteReq_mshr_misses::.cpu.data           71                       # number of WriteReq MSHR misses
system.cpu.dcache.WriteReq_mshr_misses::total           71                       # number of WriteReq MSHR misses
system.cpu.dcache.WriteReq_mshr_miss_latency::.cpu.data      3970000                       # number of WriteReq MSHR miss cycles
system.cpu.dcache.WriteReq_mshr_miss_latency::total      3970000                       # number of WriteReq MSHR miss cycles
system.cpu.dcache.WriteReq_mshr_miss_rate::.cpu.data     0.000305                       # mshr miss rate for WriteReq accesses
system.cpu.dcache.WriteReq_mshr_miss_rate::total     0.000305                       # mshr miss rate for WriteReq accesses
system.cpu.dcache.WriteReq_avg_mshr_miss_latency::.cpu.data 55915.492958                       # average WriteReq mshr miss latency
system.cpu.dcache.WriteReq_avg_mshr_miss_latency::total 55915.492958                       # average WriteReq mshr miss latency
system.cpu.dcache.SoftPFReq_hits::.cpu.data           20                       # number of SoftPFReq hits
system.cpu.dcache.SoftPFReq_hits::total            20                       # number of SoftPFReq hits
system.cpu.dcache.SoftPFReq_misses::.cpu.data            9                       # number of SoftPFReq misses
system.cpu.dcache.SoftPFReq_misses::total            9                       # number of SoftPFReq misses
system.cpu.dcache.SoftPFReq_accesses::.cpu.data           29                       # number of SoftPFReq accesses(hits+misses)
system.cpu.dcache.SoftPFReq_accesses::total           29                       # number of SoftPFReq accesses(hits+misses)
system.cpu.dcache.SoftPFReq_miss_rate::.cpu.data     0.310345                       # miss rate for SoftPFReq accesses
system.cpu.dcache.SoftPFReq_miss_rate::total     0.310345                       # miss rate for SoftPFReq accesses
system.cpu.dcache.SoftPFReq_mshr_misses::.cpu.data            6                       # number of SoftPFReq MSHR misses
system.cpu.dcache.SoftPFReq_mshr_misses::total            6                       # number of SoftPFReq MSHR misses
system.cpu.dcache.SoftPFReq_mshr_miss_latency::.cpu.data       336000                       # number of SoftPFReq MSHR miss cycles
system.cpu.dcache.SoftPFReq_mshr_miss_latency::total       336000                       # number of SoftPFReq MSHR miss cycles
system.cpu.dcache.SoftPFReq_mshr_miss_rate::.cpu.data     0.206897                       # mshr miss rate for SoftPFReq accesses
system.cpu.dcache.SoftPFReq_mshr_miss_rate::total     0.206897                       # mshr miss rate for SoftPFReq accesses
system.cpu.dcache.SoftPFReq_avg_mshr_miss_latency::.cpu.data        56000                       # average SoftPFReq mshr miss latency
system.cpu.dcache.SoftPFReq_avg_mshr_miss_latency::total        56000                       # average SoftPFReq mshr miss latency
system.cpu.dcache.LoadLockedReq_hits::.cpu.data           60                       # number of LoadLockedReq hits
system.cpu.dcache.LoadLockedReq_hits::total           60                       # number of LoadLockedReq hits
system.cpu.dcache.LoadLockedReq_accesses::.cpu.data           60                       # number of LoadLockedReq accesses(hits+misses)
system.cpu.dcache.LoadLockedReq_accesses::total           60                       # number of LoadLockedReq accesses(hits+misses)
system.cpu.dcache.StoreCondReq_hits::.cpu.data           60                       # number of StoreCondReq hits
system.cpu.dcache.StoreCondReq_hits::total           60                       # number of StoreCondReq hits
system.cpu.dcache.StoreCondReq_accesses::.cpu.data           60                       # number of StoreCondReq accesses(hits+misses)
system.cpu.dcache.StoreCondReq_accesses::total           60                       # number of StoreCondReq accesses(hits+misses)
system.cpu.dcache.power_state.pwrStateResidencyTicks::UNDEFINED   1494099000                       # Cumulative time (in ticks) in various power states
system.cpu.dcache.tags.tagsinuse           162.303720                       # Cycle average of tags in use
system.cpu.dcache.tags.total_refs              452462                       # Total number of references to valid blocks.
system.cpu.dcache.tags.sampled_refs               180                       # Sample count of references to valid blocks.
system.cpu.dcache.tags.avg_refs           2513.677778                       # Average number of references to valid blocks.
system.cpu.dcache.tags.warmup_cycle            150000                       # Cycle when the warmup percentage was hit.
system.cpu.dcache.tags.occ_blocks::.cpu.data   162.303720                       # Average occupied blocks per requestor
system.cpu.dcache.tags.occ_percent::.cpu.data     0.158500                       # Average percentage of cache occupancy
system.cpu.dcache.tags.occ_percent::total     0.158500                       # Average percentage of cache occupancy
system.cpu.dcache.tags.occ_task_id_blocks::1024          180                       # Occupied blocks per task id
system.cpu.dcache.tags.age_task_id_blocks_1024::0           16                       # Occupied blocks per task id
system.cpu.dcache.tags.age_task_id_blocks_1024::3          164                       # Occupied blocks per task id
system.cpu.dcache.tags.occ_task_id_percent::1024     0.175781                       # Percentage of cache occupancy per task id
system.cpu.dcache.tags.tag_accesses            905222                       # Number of tag accesses
system.cpu.dcache.tags.data_accesses           905222                       # Number of data accesses
system.cpu.dcache.tags.power_state.pwrStateResidencyTicks::UNDEFINED   1494099000                       # Cumulative time (in ticks) in various power states
system.cpu.dtb.instHits                             0                       # ITB inst hits
system.cpu.dtb.instMisses                           0                       # ITB inst misses
system.cpu.dtb.readHits                             0                       # DTB read hits
system.cpu.dtb.readMisses                           0                       # DTB read misses
system.cpu.dtb.writeHits                            0                       # DTB write hits
system.cpu.dtb.writeMisses                          0                       # DTB write misses
system.cpu.dtb.inserts                              0                       # Number of times an entry is inserted into the TLB
system.cpu.dtb.flushTlb                             0                       # Number of times complete TLB was flushed
system.cpu.dtb.flushTlbMva                          0                       # Number of times TLB was flushed by MVA
system.cpu.dtb.flushTlbMvaAsid                      0                       # Number of times TLB was flushed by MVA & ASID
system.cpu.dtb.flushTlbAsid                         0                       # Number of times TLB was flushed by ASID
system.cpu.dtb.flushedEntries                       0                       # Number of entries that have been flushed from TLB
system.cpu.dtb.alignFaults                          0                       # Number of TLB faults due to alignment restrictions
system.cpu.dtb.prefetchFaults                       0                       # Number of TLB faults due to prefetch
system.cpu.dtb.domainFaults                         0                       # Number of TLB faults due to domain restrictions
system.cpu.dtb.permsFaults                          0                       # Number of TLB faults due to permissions restrictions
system.cpu.dtb.readAccesses                         0                       # DTB read accesses
system.cpu.dtb.writeAccesses                        0                       # DTB write accesses
system.cpu.dtb.instAccesses                         0                       # ITB inst accesses
system.cpu.dtb.hits                                 0                       # Total TLB (inst and data) hits
system.cpu.dtb.misses                               0                       # Total TLB (inst and data) misses
system.cpu.dtb.accesses                             0                       # Total TLB (inst and data) accesses
system.cpu.dtb.stage2_mmu.stage2_tlb.instHits            0                       # ITB inst hits
system.cpu.dtb.stage2_mmu.stage2_tlb.instMisses            0                       # ITB inst misses
system.cpu.dtb.stage2_mmu.stage2_tlb.readHits            0                       # DTB read hits
system.cpu.dtb.stage2_mmu.stage2_tlb.readMisses            0                       # DTB read misses
system.cpu.dtb.stage2_mmu.stage2_tlb.writeHits            0                       # DTB write hits
system.cpu.dtb.stage2_mmu.stage2_tlb.writeMisses            0                       # DTB write misses
system.cpu.dtb.stage2_mmu.stage2_tlb.inserts            0                       # Number of times an entry is inserted into the TLB
system.cpu.dtb.stage2_mmu.stage2_tlb.flushTlb            0                       # Number of times complete TLB was flushed
system.cpu.dtb.stage2_mmu.stage2_tlb.flushTlbMva            0                       # Number of times TLB was flushed by MVA
system.cpu.dtb.stage2_mmu.stage2_tlb.flushTlbMvaAsid            0                       # Number of times TLB was flushed by MVA & ASID
system.cpu.dtb.stage2_mmu.stage2_tlb.flushTlbAsid            0                       # Number of times TLB was flushed by ASID
system.cpu.dtb.stage2_mmu.stage2_tlb.flushedEntries            0                       # Number of entries that have been flushed from TLB
system.cpu.dtb.stage2_mmu.stage2_tlb.alignFaults            0                       # Number of TLB faults due to alignment restrictions
system.cpu.dtb.stage2_mmu.stage2_tlb.prefetchFaults            0                       # Number of TLB faults due to prefetch
system.cpu.dtb.stage2_mmu.stage2_tlb.domainFaults            0                       # Number of TLB faults due to domain restrictions
system.cpu.dtb.stage2_mmu.stage2_tlb.permsFaults            0                       # Number of TLB faults due to permissions restrictions
system.cpu.dtb.stage2_mmu.stage2_tlb.readAccesses            0                       # DTB read accesses
system.cpu.dtb.stage2_mmu.stage2_tlb.writeAccesses            0                       # DTB write accesses
system.cpu.dtb.stage2_mmu.stage2_tlb.instAccesses            0                       # ITB inst accesses
system.cpu.dtb.stage2_mmu.stage2_tlb.hits            0                       # Total TLB (inst and data) hits
system.cpu.dtb.stage2_mmu.stage2_tlb.misses            0                       # Total TLB (inst and data) misses
system.cpu.dtb.stage2_mmu.stage2_tlb.accesses            0                       # Total TLB (inst and data) accesses
system.cpu.dtb.stage2_mmu.stage2_tlb.walker.walks            0                       # Table walker walks requested
system.cpu.dtb.stage2_mmu.stage2_tlb.walker.requestOrigin_Requested::Data            0                       # Table walker requests started/completed, data/inst
system.cpu.dtb.stage2_mmu.stage2_tlb.walker.requestOrigin_Requested::Inst            0                       # Table walker requests started/completed, data/inst
system.cpu.dtb.stage2_mmu.stage2_tlb.walker.requestOrigin_Requested::total            0                       # Table walker requests started/completed, data/inst
system.cpu.dtb.stage2_mmu.stage2_tlb.walker.requestOrigin_Completed::Data            0                       # Table walker requests started/completed, data/inst
system.cpu.dtb.stage2_mmu.stage2_tlb.walker.requestOrigin_Completed::Inst            0                       # Table walker requests started/completed, data/inst
system.cpu.dtb.stage2_mmu.stage2_tlb.walker.requestOrigin_Completed::total            0                       # Table walker requests started/completed, data/inst
system.cpu.dtb.stage2_mmu.stage2_tlb.walker.requestOrigin::total            0                       # Table walker requests started/completed, data/inst
system.cpu.dtb.stage2_mmu.stage2_tlb.walker.power_state.pwrStateResidencyTicks::UNDEFINED   1494099000                       # Cumulative time (in ticks) in various power states
system.cpu.dtb.walker.walks                         0                       # Table walker walks requested
system.cpu.dtb.walker.requestOrigin_Requested::Data            0                       # Table walker requests started/completed, data/inst
system.cpu.dtb.walker.requestOrigin_Requested::Inst            0                       # Table walker requests started/completed, data/inst
system.cpu.dtb.walker.requestOrigin_Requested::total            0                       # Table walker requests started/completed, data/inst
system.cpu.dtb.walker.requestOrigin_Completed::Data            0                       # Table walker requests started/completed, data/inst
system.cpu.dtb.walker.requestOrigin_Completed::Inst            0                       # Table walker requests started/completed, data/inst
system.cpu.dtb.walker.requestOrigin_Completed::total            0                       # Table walker requests started/completed, data/inst
system.cpu.dtb.walker.requestOrigin::total            0                       # Table walker requests started/completed, data/inst
system.cpu.dtb.walker.power_state.pwrStateResidencyTicks::UNDEFINED   1494099000                       # Cumulative time (in ticks) in various power states
system.cpu.fetch2.intInstructions              645477                       # Number of integer instructions successfully decoded
system.cpu.fetch2.fpInstructions                    0                       # Number of floating point instructions successfully decoded
system.cpu.fetch2.vecInstructions                   0                       # Number of SIMD instructions successfully decoded
system.cpu.fetch2.loadInstructions             156158                       # Number of memory load instructions successfully decoded
system.cpu.fetch2.storeInstructions             59975                       # Number of memory store instructions successfully decoded
system.cpu.fetch2.amoInstructions                   0                       # Number of memory atomic instructions successfully decoded
system.cpu.icache.demand_hits::.cpu.inst       465676                       # number of demand (read+write) hits
system.cpu.icache.demand_hits::total           465676                       # number of demand (read+write) hits
system.cpu.icache.overall_hits::.cpu.inst       465676                       # number of overall hits
system.cpu.icache.overall_hits::total          465676                       # number of overall hits
system.cpu.icache.demand_misses::.cpu.inst          599                       # number of demand (read+write) misses
system.cpu.icache.demand_misses::total            599                       # number of demand (read+write) misses
system.cpu.icache.overall_misses::.cpu.inst          599                       # number of overall misses
system.cpu.icache.overall_misses::total           599                       # number of overall misses
system.cpu.icache.demand_miss_latency::.cpu.inst     30379000                       # number of demand (read+write) miss cycles
system.cpu.icache.demand_miss_latency::total     30379000                       # number of demand (read+write) miss cycles
system.cpu.icache.overall_miss_latency::.cpu.inst     30379000                       # number of overall miss cycles
system.cpu.icache.overall_miss_latency::total     30379000                       # number of overall miss cycles
system.cpu.icache.demand_accesses::.cpu.inst       466275                       # number of demand (read+write) accesses
system.cpu.icache.demand_accesses::total       466275                       # number of demand (read+write) accesses
system.cpu.icache.overall_accesses::.cpu.inst       466275                       # number of overall (read+write) accesses
system.cpu.icache.overall_accesses::total       466275                       # number of overall (read+write) accesses
system.cpu.icache.demand_miss_rate::.cpu.inst     0.001285                       # miss rate for demand accesses
system.cpu.icache.demand_miss_rate::total     0.001285                       # miss rate for demand accesses
system.cpu.icache.overall_miss_rate::.cpu.inst     0.001285                       # miss rate for overall accesses
system.cpu.icache.overall_miss_rate::total     0.001285                       # miss rate for overall accesses
system.cpu.icache.demand_avg_miss_latency::.cpu.inst 50716.193656                       # average overall miss latency
system.cpu.icache.demand_avg_miss_latency::total 50716.193656                       # average overall miss latency
system.cpu.icache.overall_avg_miss_latency::.cpu.inst 50716.193656                       # average overall miss latency
system.cpu.icache.overall_avg_miss_latency::total 50716.193656                       # average overall miss latency
system.cpu.icache.blocked_cycles::no_mshrs            0                       # number of cycles access was blocked
system.cpu.icache.blocked_cycles::no_targets            0                       # number of cycles access was blocked
system.cpu.icache.blocked::no_mshrs                 0                       # number of cycles access was blocked
system.cpu.icache.blocked::no_targets               0                       # number of cycles access was blocked
system.cpu.icache.avg_blocked_cycles::no_mshrs          nan                       # average number of cycles each access was blocked
system.cpu.icache.avg_blocked_cycles::no_targets          nan                       # average number of cycles each access was blocked
system.cpu.icache.writebacks::.writebacks          287                       # number of writebacks
system.cpu.icache.writebacks::total               287                       # number of writebacks
system.cpu.icache.demand_mshr_misses::.cpu.inst          599                       # number of demand (read+write) MSHR misses
system.cpu.icache.demand_mshr_misses::total          599                       # number of demand (read+write) MSHR misses
system.cpu.icache.overall_mshr_misses::.cpu.inst          599                       # number of overall MSHR misses
system.cpu.icache.overall_mshr_misses::total          599                       # number of overall MSHR misses
system.cpu.icache.demand_mshr_miss_latency::.cpu.inst     29181000                       # number of demand (read+write) MSHR miss cycles
system.cpu.icache.demand_mshr_miss_latency::total     29181000                       # number of demand (read+write) MSHR miss cycles
system.cpu.icache.overall_mshr_miss_latency::.cpu.inst     29181000                       # number of overall MSHR miss cycles
system.cpu.icache.overall_mshr_miss_latency::total     29181000                       # number of overall MSHR miss cycles
system.cpu.icache.demand_mshr_miss_rate::.cpu.inst     0.001285                       # mshr miss rate for demand accesses
system.cpu.icache.demand_mshr_miss_rate::total     0.001285                       # mshr miss rate for demand accesses
system.cpu.icache.overall_mshr_miss_rate::.cpu.inst     0.001285                       # mshr miss rate for overall accesses
system.cpu.icache.overall_mshr_miss_rate::total     0.001285                       # mshr miss rate for overall accesses
system.cpu.icache.demand_avg_mshr_miss_latency::.cpu.inst 48716.193656                       # average overall mshr miss latency
system.cpu.icache.demand_avg_mshr_miss_latency::total 48716.193656                       # average overall mshr miss latency
system.cpu.icache.overall_avg_mshr_miss_latency::.cpu.inst 48716.193656                       # average overall mshr miss latency
system.cpu.icache.overall_avg_mshr_miss_latency::total 48716.193656                       # average overall mshr miss latency
system.cpu.icache.replacements                    287                       # number of replacements
system.cpu.icache.ReadReq_hits::.cpu.inst       465676                       # number of ReadReq hits
system.cpu.icache.ReadReq_hits::total          465676                       # number of ReadReq hits
system.cpu.icache.ReadReq_misses::.cpu.inst          599                       # number of ReadReq misses
system.cpu.icache.ReadReq_misses::total           599                       # number of ReadReq misses
system.cpu.icache.ReadReq_miss_latency::.cpu.inst     30379000                       # number of ReadReq miss cycles
system.cpu.icache.ReadReq_miss_latency::total     30379000                       # number of ReadReq miss cycles
system.cpu.icache.ReadReq_accesses::.cpu.inst       466275                       # number of ReadReq accesses(hits+misses)
system.cpu.icache.ReadReq_accesses::total       466275                       # number of ReadReq accesses(hits+misses)
system.cpu.icache.ReadReq_miss_rate::.cpu.inst     0.001285                       # miss rate for ReadReq accesses
system.cpu.icache.ReadReq_miss_rate::total     0.001285                       # miss rate for ReadReq accesses
system.cpu.icache.ReadReq_avg_miss_latency::.cpu.inst 50716.193656                       # average ReadReq miss latency
system.cpu.icache.ReadReq_avg_miss_latency::total 50716.193656                       # average ReadReq miss latency
system.cpu.icache.ReadReq_mshr_misses::.cpu.inst          599                       # number of ReadReq MSHR misses
system.cpu.icache.ReadReq_mshr_misses::total          599                       # number of ReadReq MSHR misses
system.cpu.icache.ReadReq_mshr_miss_latency::.cpu.inst     29181000                       # number of ReadReq MSHR miss cycles
system.cpu.icache.ReadReq_mshr_miss_latency::total     29181000                       # number of ReadReq MSHR miss cycles
system.cpu.icache.ReadReq_mshr_miss_rate::.cpu.inst     0.001285                       # mshr miss rate for ReadReq accesses
system.cpu.icache.ReadReq_mshr_miss_rate::total     0.001285                       # mshr miss rate for ReadReq accesses
system.cpu.icache.ReadReq_avg_mshr_miss_latency::.cpu.inst 48716.193656                       # average ReadReq mshr miss latency
system.cpu.icache.ReadReq_avg_mshr_miss_latency::total 48716.193656                       # average ReadReq mshr miss latency
system.cpu.icache.power_state.pwrStateResidencyTicks::UNDEFINED   1494099000                       # Cumulative time (in ticks) in various power states
system.cpu.icache.tags.tagsinuse           275.046727                       # Cycle average of tags in use
system.cpu.icache.tags.total_refs              466275                       # Total number of references to valid blocks.
system.cpu.icache.tags.sampled_refs               599                       # Sample count of references to valid blocks.
system.cpu.icache.tags.avg_refs            778.422371                       # Average number of references to valid blocks.
system.cpu.icache.tags.warmup_cycle             77000                       # Cycle when the warmup percentage was hit.
system.cpu.icache.tags.occ_blocks::.cpu.inst   275.046727                       # Average occupied blocks per requestor
system.cpu.icache.tags.occ_percent::.cpu.inst     0.537201                       # Average percentage of cache occupancy
system.cpu.icache.tags.occ_percent::total     0.537201                       # Average percentage of cache occupancy
system.cpu.icache.tags.occ_task_id_blocks::1024          312                       # Occupied blocks per task id
system.cpu.icache.tags.age_task_id_blocks_1024::0           67                       # Occupied blocks per task id
system.cpu.icache.tags.age_task_id_blocks_1024::3          245                       # Occupied blocks per task id
system.cpu.icache.tags.occ_task_id_percent::1024     0.609375                       # Percentage of cache occupancy per task id
system.cpu.icache.tags.tag_accesses            933149                       # Number of tag accesses
system.cpu.icache.tags.data_accesses           933149                       # Number of data accesses
system.cpu.icache.tags.power_state.pwrStateResidencyTicks::UNDEFINED   1494099000                       # Cumulative time (in ticks) in various power states
system.cpu.itb.instHits                             0                       # ITB inst hits
system.cpu.itb.instMisses                           0                       # ITB inst misses
system.cpu.itb.readHits                             0                       # DTB read hits
system.cpu.itb.readMisses                           0                       # DTB read misses
system.cpu.itb.writeHits                            0                       # DTB write hits
system.cpu.itb.writeMisses                          0                       # DTB write misses
system.cpu.itb.inserts                              0                       # Number of times an entry is inserted into the TLB
system.cpu.itb.flushTlb                             0                       # Number of times complete TLB was flushed
system.cpu.itb.flushTlbMva                          0                       # Number of times TLB was flushed by MVA
system.cpu.itb.flushTlbMvaAsid                      0                       # Number of times TLB was flushed by MVA & ASID
system.cpu.itb.flushTlbAsid                         0                       # Number of times TLB was flushed by ASID
system.cpu.itb.flushedEntries                       0                       # Number of entries that have been flushed from TLB
system.cpu.itb.alignFaults                          0                       # Number of TLB faults due to alignment restrictions
system.cpu.itb.prefetchFaults                       0                       # Number of TLB faults due to prefetch
system.cpu.itb.domainFaults                         0                       # Number of TLB faults due to domain restrictions
system.cpu.itb.permsFaults                          0                       # Number of TLB faults due to permissions restrictions
system.cpu.itb.readAccesses                         0                       # DTB read accesses
system.cpu.itb.writeAccesses                        0                       # DTB write accesses
system.cpu.itb.instAccesses                         0                       # ITB inst accesses
system.cpu.itb.hits                                 0                       # Total TLB (inst and data) hits
system.cpu.itb.misses                               0                       # Total TLB (inst and data) misses
system.cpu.itb.accesses                             0                       # Total TLB (inst and data) accesses
system.cpu.itb.stage2_mmu.stage2_tlb.instHits            0                       # ITB inst hits
system.cpu.itb.stage2_mmu.stage2_tlb.instMisses            0                       # ITB inst misses
system.cpu.itb.stage2_mmu.stage2_tlb.readHits            0                       # DTB read hits
system.cpu.itb.stage2_mmu.stage2_tlb.readMisses            0                       # DTB read misses
system.cpu.itb.stage2_mmu.stage2_tlb.writeHits            0                       # DTB write hits
system.cpu.itb.stage2_mmu.stage2_tlb.writeMisses            0                       # DTB write misses
system.cpu.itb.stage2_mmu.stage2_tlb.inserts            0                       # Number of times an entry is inserted into the TLB
system.cpu.itb.stage2_mmu.stage2_tlb.flushTlb            0                       # Number of times complete TLB was flushed
system.cpu.itb.stage2_mmu.stage2_tlb.flushTlbMva            0                       # Number of times TLB was flushed by MVA
system.cpu.itb.stage2_mmu.stage2_tlb.flushTlbMvaAsid            0                       # Number of times TLB was flushed by MVA & ASID
system.cpu.itb.stage2_mmu.stage2_tlb.flushTlbAsid            0                       # Number of times TLB was flushed by ASID
system.cpu.itb.stage2_mmu.stage2_tlb.flushedEntries            0                       # Number of entries that have been flushed from TLB
system.cpu.itb.stage2_mmu.stage2_tlb.alignFaults            0                       # Number of TLB faults due to alignment restrictions
system.cpu.itb.stage2_mmu.stage2_tlb.prefetchFaults            0                       # Number of TLB faults due to prefetch
system.cpu.itb.stage2_mmu.stage2_tlb.domainFaults            0                       # Number of TLB faults due to domain restrictions
system.cpu.itb.stage2_mmu.stage2_tlb.permsFaults            0                       # Number of TLB faults due to permissions restrictions
system.cpu.itb.stage2_mmu.stage2_tlb.readAccesses            0                       # DTB read accesses
system.cpu.itb.stage2_mmu.stage2_tlb.writeAccesses            0                       # DTB write accesses
system.cpu.itb.stage2_mmu.stage2_tlb.instAccesses            0                       # ITB inst accesses
system.cpu.itb.stage2_mmu.stage2_tlb.hits            0                       # Total TLB (inst and data) hits
system.cpu.itb.stage2_mmu.stage2_tlb.misses            0                       # Total TLB (inst and data) misses
system.cpu.itb.stage2_mmu.stage2_tlb.accesses            0                       # Total TLB (inst and data) accesses
system.cpu.itb.stage2_mmu.stage2_tlb.walker.walks            0                       # Table walker walks requested
system.cpu.itb.stage2_mmu.stage2_tlb.walker.requestOrigin_Requested::Data            0                       # Table walker requests started/completed, data/inst
system.cpu.itb.stage2_mmu.stage2_tlb.walker.requestOrigin_Requested::Inst            0                       # Table walker requests started/completed, data/inst
system.cpu.itb.stage2_mmu.stage2_tlb.walker.requestOrigin_Requested::total            0                       # Table walker requests started/completed, data/inst
system.cpu.itb.stage2_mmu.stage2_tlb.walker.requestOrigin_Completed::Data            0                       # Table walker requests started/completed, data/inst
system.cpu.itb.stage2_mmu.stage2_tlb.walker.requestOrigin_Completed::Inst            0                       # Table walker requests started/completed, data/inst
system.cpu.itb.stage2_mmu.stage2_tlb.walker.requestOrigin_Completed::total            0                       # Table walker requests started/completed, data/inst
system.cpu.itb.stage2_mmu.stage2_tlb.walker.requestOrigin::total            0                       # Table walker requests started/completed, data/inst
system.cpu.itb.stage2_mmu.stage2_tlb.walker.power_state.pwrStateResidencyTicks::UNDEFINED   1494099000                       # Cumulative time (in ticks) in various power states
system.cpu.itb.walker.walks                         0                       # Table walker walks requested
system.cpu.itb.walker.requestOrigin_Requested::Data            0                       # Table walker requests started/completed, data/inst
system.cpu.itb.walker.requestOrigin_Requested::Inst            0                       # Table walker requests started/completed, data/inst
system.cpu.itb.walker.requestOrigin_Requested::total            0                       # Table walker requests started/completed, data/inst
system.cpu.itb.walker.requestOrigin_Completed::Data            0                       # Table walker requests started/completed, data/inst
system.cpu.itb.walker.requestOrigin_Completed::Inst            0                       # Table walker requests started/completed, data/inst
system.cpu.itb.walker.requestOrigin_Completed::total            0                       # Table walker requests started/completed, data/inst
system.cpu.itb.walker.requestOrigin::total            0                       # Table walker requests started/completed, data/inst
system.cpu.itb.walker.power_state.pwrStateResidencyTicks::UNDEFINED   1494099000                       # Cumulative time (in ticks) in various power states
system.cpu.power_state.pwrStateResidencyTicks::ON   1494099000                       # Cumulative time (in ticks) in various power states
system.cpu.thread0.numInsts                   1022977                       # Number of Instructions committed
system.cpu.thread0.numOps                     1370020                       # Number of Ops committed
system.cpu.thread0.numMemRefs                       0                       # Number of Memory References
system.cpu_clk_domain.clock                      1000                       # Clock period in ticks
system.cpu_voltage_domain.voltage                   1                       # Voltage in Volts
system.mem_ctrls.avgPriority_.writebacks::samples       141.00                       # Average QoS priority value for accepted requests
system.mem_ctrls.avgPriority_.cpu.inst::samples       444.00                       # Average QoS priority value for accepted requests
system.mem_ctrls.avgPriority_.cpu.data::samples       179.00                       # Average QoS priority value for accepted requests
system.mem_ctrls.priorityMinLatency      0.000000018750                       # per QoS priority minimum request to response latency (s)
system.mem_ctrls.priorityMaxLatency      0.002915945750                       # per QoS priority maximum request to response latency (s)
system.mem_ctrls.numReadWriteTurnArounds            7                       # Number of turnarounds from READ to WRITE
system.mem_ctrls.numWriteReadTurnArounds            7                       # Number of turnarounds from WRITE to READ
system.mem_ctrls.numStayReadState                1891                       # Number of times bus staying in READ state
system.mem_ctrls.numStayWriteState                107                       # Number of times bus staying in WRITE state
system.mem_ctrls.readReqs                         779                       # Number of read requests accepted
system.mem_ctrls.writeReqs                        278                       # Number of write requests accepted
system.mem_ctrls.readBursts                       779                       # Number of controller read bursts, including those serviced by the write queue
system.mem_ctrls.writeBursts                      278                       # Number of controller write bursts, including those merged in the write queue
system.mem_ctrls.servicedByWrQ                    156                       # Number of controller read bursts serviced by the write queue
system.mem_ctrls.mergedWrBursts                   137                       # Number of controller write bursts merged with an existing one
system.mem_ctrls.neitherReadNorWriteReqs            0                       # Number of requests that are neither read nor write
system.mem_ctrls.avgRdQLen                       1.00                       # Average read queue length when enqueuing
system.mem_ctrls.avgWrQLen                      31.54                       # Average write queue length when enqueuing
system.mem_ctrls.numRdRetry                         0                       # Number of times read queue was full causing retry
system.mem_ctrls.numWrRetry                         0                       # Number of times write queue was full causing retry
system.mem_ctrls.readPktSize::0                     0                       # Read request sizes (log2)
system.mem_ctrls.readPktSize::1                     0                       # Read request sizes (log2)
system.mem_ctrls.readPktSize::2                     0                       # Read request sizes (log2)
system.mem_ctrls.readPktSize::3                     0                       # Read request sizes (log2)
system.mem_ctrls.readPktSize::4                     0                       # Read request sizes (log2)
system.mem_ctrls.readPktSize::5                     0                       # Read request sizes (log2)
system.mem_ctrls.readPktSize::6                   779                       # Read request sizes (log2)
system.mem_ctrls.writePktSize::0                    0                       # Write request sizes (log2)
system.mem_ctrls.writePktSize::1                    0                       # Write request sizes (log2)
system.mem_ctrls.writePktSize::2                    0                       # Write request sizes (log2)
system.mem_ctrls.writePktSize::3                    0                       # Write request sizes (log2)
system.mem_ctrls.writePktSize::4                    0                       # Write request sizes (log2)
system.mem_ctrls.writePktSize::5                    0                       # Write request sizes (log2)
system.mem_ctrls.writePktSize::6                  278                       # Write request sizes (log2)
system.mem_ctrls.rdQLenPdf::0                     530                       # What read queue length does an incoming req see
system.mem_ctrls.rdQLenPdf::1                      89                       # What read queue length does an incoming req see
system.mem_ctrls.rdQLenPdf::2                       4                       # What read queue length does an incoming req see
system.mem_ctrls.rdQLenPdf::3                       0                       # What read queue length does an incoming req see
system.mem_ctrls.rdQLenPdf::4                       0                       # What read queue length does an incoming req see
system.mem_ctrls.rdQLenPdf::5                       0                       # What read queue length does an incoming req see
system.mem_ctrls.rdQLenPdf::6                       0                       # What read queue length does an incoming req see
system.mem_ctrls.rdQLenPdf::7                       0                       # What read queue length does an incoming req see
system.mem_ctrls.rdQLenPdf::8                       0                       # What read queue length does an incoming req see
system.mem_ctrls.rdQLenPdf::9                       0                       # What read queue length does an incoming req see
system.mem_ctrls.rdQLenPdf::10                      0                       # What read queue length does an incoming req see
system.mem_ctrls.rdQLenPdf::11                      0                       # What read queue length does an incoming req see
system.mem_ctrls.rdQLenPdf::12                      0                       # What read queue length does an incoming req see
system.mem_ctrls.rdQLenPdf::13                      0                       # What read queue length does an incoming req see
system.mem_ctrls.rdQLenPdf::14                      0                       # What read queue length does an incoming req see
system.mem_ctrls.rdQLenPdf::15                      0                       # What read queue length does an incoming req see
system.mem_ctrls.rdQLenPdf::16                      0                       # What read queue length does an incoming req see
system.mem_ctrls.rdQLenPdf::17                      0                       # What read queue length does an incoming req see
system.mem_ctrls.rdQLenPdf::18                      0                       # What read queue length does an incoming req see
system.mem_ctrls.rdQLenPdf::19                      0                       # What read queue length does an incoming req see
system.mem_ctrls.rdQLenPdf::20                      0                       # What read queue length does an incoming req see
system.mem_ctrls.rdQLenPdf::21                      0                       # What read queue length does an incoming req see
system.mem_ctrls.rdQLenPdf::22                      0                       # What read queue length does an incoming req see
system.mem_ctrls.rdQLenPdf::23                      0                       # What read queue length does an incoming req see
system.mem_ctrls.rdQLenPdf::24                      0                       # What read queue length does an incoming req see
system.mem_ctrls.rdQLenPdf::25                      0                       # What read queue length does an incoming req see
system.mem_ctrls.rdQLenPdf::26                      0                       # What read queue length does an incoming req see
system.mem_ctrls.rdQLenPdf::27                      0                       # What read queue length does an incoming req see
system.mem_ctrls.rdQLenPdf::28                      0                       # What read queue length does an incoming req see
system.mem_ctrls.rdQLenPdf::29                      0                       # What read queue length does an incoming req see
system.mem_ctrls.rdQLenPdf::30                      0                       # What read queue length does an incoming req see
system.mem_ctrls.rdQLenPdf::31                      0                       # What read queue length does an incoming req see
system.mem_ctrls.wrQLenPdf::0                       1                       # What write queue length does an incoming req see
system.mem_ctrls.wrQLenPdf::1                       1                       # What write queue length does an incoming req see
system.mem_ctrls.wrQLenPdf::2                       1                       # What write queue length does an incoming req see
system.mem_ctrls.wrQLenPdf::3                       1                       # What write queue length does an incoming req see
system.mem_ctrls.wrQLenPdf::4                       1                       # What write queue length does an incoming req see
system.mem_ctrls.wrQLenPdf::5                       1                       # What write queue length does an incoming req see
system.mem_ctrls.wrQLenPdf::6                       1                       # What write queue length does an incoming req see
system.mem_ctrls.wrQLenPdf::7                       1                       # What write queue length does an incoming req see
system.mem_ctrls.wrQLenPdf::8                       1                       # What write queue length does an incoming req see
system.mem_ctrls.wrQLenPdf::9                       1                       # What write queue length does an incoming req see
system.mem_ctrls.wrQLenPdf::10                      1                       # What write queue length does an incoming req see
system.mem_ctrls.wrQLenPdf::11                      1                       # What write queue length does an incoming req see
system.mem_ctrls.wrQLenPdf::12                      1                       # What write queue length does an incoming req see
system.mem_ctrls.wrQLenPdf::13                      1                       # What write queue length does an incoming req see
system.mem_ctrls.wrQLenPdf::14                      1                       # What write queue length does an incoming req see
system.mem_ctrls.wrQLenPdf::15                      2                       # What write queue length does an incoming req see
system.mem_ctrls.wrQLenPdf::16                      2                       # What write queue length does an incoming req see
system.mem_ctrls.wrQLenPdf::17                      7                       # What write queue length does an incoming req see
system.mem_ctrls.wrQLenPdf::18                      8                       # What write queue length does an incoming req see
system.mem_ctrls.wrQLenPdf::19                      8                       # What write queue length does an incoming req see
system.mem_ctrls.wrQLenPdf::20                      8                       # What write queue length does an incoming req see
system.mem_ctrls.wrQLenPdf::21                      8                       # What write queue length does an incoming req see
system.mem_ctrls.wrQLenPdf::22                      9                       # What write queue length does an incoming req see
system.mem_ctrls.wrQLenPdf::23                      8                       # What write queue length does an incoming req see
system.mem_ctrls.wrQLenPdf::24                      8                       # What write queue length does an incoming req see
system.mem_ctrls.wrQLenPdf::25                      8                       # What write queue length does an incoming req see
system.mem_ctrls.wrQLenPdf::26                      8                       # What write queue length does an incoming req see
system.mem_ctrls.wrQLenPdf::27                      7                       # What write queue length does an incoming req see
system.mem_ctrls.wrQLenPdf::28                      7                       # What write queue length does an incoming req see
system.mem_ctrls.wrQLenPdf::29                      7                       # What write queue length does an incoming req see
system.mem_ctrls.wrQLenPdf::30                      7                       # What write queue length does an incoming req see
system.mem_ctrls.wrQLenPdf::31                      7                       # What write queue length does an incoming req see
system.mem_ctrls.wrQLenPdf::32                      7                       # What write queue length does an incoming req see
system.mem_ctrls.wrQLenPdf::33                      0                       # What write queue length does an incoming req see
system.mem_ctrls.wrQLenPdf::34                      0                       # What write queue length does an incoming req see
system.mem_ctrls.wrQLenPdf::35                      0                       # What write queue length does an incoming req see
system.mem_ctrls.wrQLenPdf::36                      0                       # What write queue length does an incoming req see
system.mem_ctrls.wrQLenPdf::37                      0                       # What write queue length does an incoming req see
system.mem_ctrls.wrQLenPdf::38                      0                       # What write queue length does an incoming req see
system.mem_ctrls.wrQLenPdf::39                      0                       # What write queue length does an incoming req see
system.mem_ctrls.wrQLenPdf::40                      0                       # What write queue length does an incoming req see
system.mem_ctrls.wrQLenPdf::41                      0                       # What write queue length does an incoming req see
system.mem_ctrls.wrQLenPdf::42                      0                       # What write queue length does an incoming req see
system.mem_ctrls.wrQLenPdf::43                      0                       # What write queue length does an incoming req see
system.mem_ctrls.wrQLenPdf::44                      0                       # What write queue length does an incoming req see
system.mem_ctrls.wrQLenPdf::45                      0                       # What write queue length does an incoming req see
system.mem_ctrls.wrQLenPdf::46                      0                       # What write queue length does an incoming req see
system.mem_ctrls.wrQLenPdf::47                      0                       # What write queue length does an incoming req see
system.mem_ctrls.wrQLenPdf::48                      0                       # What write queue length does an incoming req see
system.mem_ctrls.wrQLenPdf::49                      0                       # What write queue length does an incoming req see
system.mem_ctrls.wrQLenPdf::50                      0                       # What write queue length does an incoming req see
system.mem_ctrls.wrQLenPdf::51                      0                       # What write queue length does an incoming req see
system.mem_ctrls.wrQLenPdf::52                      0                       # What write queue length does an incoming req see
system.mem_ctrls.wrQLenPdf::53                      0                       # What write queue length does an incoming req see
system.mem_ctrls.wrQLenPdf::54                      0                       # What write queue length does an incoming req see
system.mem_ctrls.wrQLenPdf::55                      0                       # What write queue length does an incoming req see
system.mem_ctrls.wrQLenPdf::56                      0                       # What write queue length does an incoming req see
system.mem_ctrls.wrQLenPdf::57                      0                       # What write queue length does an incoming req see
system.mem_ctrls.wrQLenPdf::58                      0                       # What write queue length does an incoming req see
system.mem_ctrls.wrQLenPdf::59                      0                       # What write queue length does an incoming req see
system.mem_ctrls.wrQLenPdf::60                      0                       # What write queue length does an incoming req see
system.mem_ctrls.wrQLenPdf::61                      0                       # What write queue length does an incoming req see
system.mem_ctrls.wrQLenPdf::62                      0                       # What write queue length does an incoming req see
system.mem_ctrls.wrQLenPdf::63                      0                       # What write queue length does an incoming req see
system.mem_ctrls.rdPerTurnAround::samples            7                       # Reads before turning the bus around for writes
system.mem_ctrls.rdPerTurnAround::mean      82.285714                       # Reads before turning the bus around for writes
system.mem_ctrls.rdPerTurnAround::gmean     48.530685                       # Reads before turning the bus around for writes
system.mem_ctrls.rdPerTurnAround::stdev    113.651095                       # Reads before turning the bus around for writes
system.mem_ctrls.rdPerTurnAround::16-31             3     42.86%     42.86% # Reads before turning the bus around for writes
system.mem_ctrls.rdPerTurnAround::32-47             2     28.57%     71.43% # Reads before turning the bus around for writes
system.mem_ctrls.rdPerTurnAround::80-95             1     14.29%     85.71% # Reads before turning the bus around for writes
system.mem_ctrls.rdPerTurnAround::320-335            1     14.29%    100.00% # Reads before turning the bus around for writes
system.mem_ctrls.rdPerTurnAround::total             7                       # Reads before turning the bus around for writes
system.mem_ctrls.wrPerTurnAround::samples            7                       # Writes before turning the bus around for reads
system.mem_ctrls.wrPerTurnAround::mean      16.285714                       # Writes before turning the bus around for reads
system.mem_ctrls.wrPerTurnAround::gmean     16.271496                       # Writes before turning the bus around for reads
system.mem_ctrls.wrPerTurnAround::stdev      0.755929                       # Writes before turning the bus around for reads
system.mem_ctrls.wrPerTurnAround::16                6     85.71%     85.71% # Writes before turning the bus around for reads
system.mem_ctrls.wrPerTurnAround::18                1     14.29%    100.00% # Writes before turning the bus around for reads
system.mem_ctrls.wrPerTurnAround::total             7                       # Writes before turning the bus around for reads
system.mem_ctrls.bytesReadWrQ                    9984                       # Total number of bytes read from write queue
system.mem_ctrls.bytesReadSys                   49856                       # Total read bytes from the system interface side
system.mem_ctrls.bytesWrittenSys                17792                       # Total written bytes from the system interface side
system.mem_ctrls.avgRdBWSys                     33.37                       # Average system read bandwidth in MiByte/s
system.mem_ctrls.avgWrBWSys                     11.91                       # Average system write bandwidth in MiByte/s
system.mem_ctrls.totGap                    1494082000                       # Total gap between requests
system.mem_ctrls.avgGap                    1413511.83                       # Average gap between requests
system.mem_ctrls.requestorReadBytes::.cpu.inst        28416                       # Per-requestor bytes read from memory
system.mem_ctrls.requestorReadBytes::.cpu.data        11456                       # Per-requestor bytes read from memory
system.mem_ctrls.requestorWriteBytes::.writebacks         7296                       # Per-requestor bytes write to memory
system.mem_ctrls.requestorReadRate::.cpu.inst 19018820.038029607385                       # Per-requestor bytes read from memory rate (Bytes/sec)
system.mem_ctrls.requestorReadRate::.cpu.data 7667497.267584009096                       # Per-requestor bytes read from memory rate (Bytes/sec)
system.mem_ctrls.requestorWriteRate::.writebacks 4883210.550304898992                       # Per-requestor bytes write to memory rate (Bytes/sec)
system.mem_ctrls.requestorReadAccesses::.cpu.inst          599                       # Per-requestor read serviced memory accesses
system.mem_ctrls.requestorReadAccesses::.cpu.data          180                       # Per-requestor read serviced memory accesses
system.mem_ctrls.requestorWriteAccesses::.writebacks          278                       # Per-requestor write serviced memory accesses
system.mem_ctrls.requestorReadTotalLat::.cpu.inst     11258750                       # Per-requestor read total memory access latency
system.mem_ctrls.requestorReadTotalLat::.cpu.data      4635500                       # Per-requestor read total memory access latency
system.mem_ctrls.requestorWriteTotalLat::.writebacks  33936322250                       # Per-requestor write total memory access latency
system.mem_ctrls.requestorReadAvgLat::.cpu.inst     18795.91                       # Per-requestor read average memory access latency
system.mem_ctrls.requestorReadAvgLat::.cpu.data     25752.78                       # Per-requestor read average memory access latency
system.mem_ctrls.requestorWriteAvgLat::.writebacks 122073101.62                       # Per-requestor write average memory access latency
system.mem_ctrls.dram.bytes_read::.cpu.inst        38336                       # Number of bytes read from this memory
system.mem_ctrls.dram.bytes_read::.cpu.data        11520                       # Number of bytes read from this memory
system.mem_ctrls.dram.bytes_read::total         49856                       # Number of bytes read from this memory
system.mem_ctrls.dram.bytes_inst_read::.cpu.inst        38336                       # Number of instructions bytes read from this memory
system.mem_ctrls.dram.bytes_inst_read::total        38336                       # Number of instructions bytes read from this memory
system.mem_ctrls.dram.num_reads::.cpu.inst          599                       # Number of read requests responded to by this memory
system.mem_ctrls.dram.num_reads::.cpu.data          180                       # Number of read requests responded to by this memory
system.mem_ctrls.dram.num_reads::total            779                       # Number of read requests responded to by this memory
system.mem_ctrls.dram.bw_read::.cpu.inst     25658273                       # Total read bandwidth from this memory (bytes/s)
system.mem_ctrls.dram.bw_read::.cpu.data      7710332                       # Total read bandwidth from this memory (bytes/s)
system.mem_ctrls.dram.bw_read::total         33368605                       # Total read bandwidth from this memory (bytes/s)
system.mem_ctrls.dram.bw_inst_read::.cpu.inst     25658273                       # Instruction read bandwidth from this memory (bytes/s)
system.mem_ctrls.dram.bw_inst_read::total     25658273                       # Instruction read bandwidth from this memory (bytes/s)
system.mem_ctrls.dram.bw_total::.cpu.inst     25658273                       # Total bandwidth to/from this memory (bytes/s)
system.mem_ctrls.dram.bw_total::.cpu.data      7710332                       # Total bandwidth to/from this memory (bytes/s)
system.mem_ctrls.dram.bw_total::total        33368605                       # Total bandwidth to/from this memory (bytes/s)
system.mem_ctrls.dram.readBursts                  623                       # Number of DRAM read bursts
system.mem_ctrls.dram.writeBursts                 114                       # Number of DRAM write bursts
system.mem_ctrls.dram.perBankRdBursts::0           70                       # Per bank write bursts
system.mem_ctrls.dram.perBankRdBursts::1            2                       # Per bank write bursts
system.mem_ctrls.dram.perBankRdBursts::2           26                       # Per bank write bursts
system.mem_ctrls.dram.perBankRdBursts::3           46                       # Per bank write bursts
system.mem_ctrls.dram.perBankRdBursts::4           21                       # Per bank write bursts
system.mem_ctrls.dram.perBankRdBursts::5           27                       # Per bank write bursts
system.mem_ctrls.dram.perBankRdBursts::6           58                       # Per bank write bursts
system.mem_ctrls.dram.perBankRdBursts::7           39                       # Per bank write bursts
system.mem_ctrls.dram.perBankRdBursts::8           79                       # Per bank write bursts
system.mem_ctrls.dram.perBankRdBursts::9           88                       # Per bank write bursts
system.mem_ctrls.dram.perBankRdBursts::10           48                       # Per bank write bursts
system.mem_ctrls.dram.perBankRdBursts::11           74                       # Per bank write bursts
system.mem_ctrls.dram.perBankRdBursts::12           30                       # Per bank write bursts
system.mem_ctrls.dram.perBankRdBursts::13            6                       # Per bank write bursts
system.mem_ctrls.dram.perBankRdBursts::14            9                       # Per bank write bursts
system.mem_ctrls.dram.perBankRdBursts::15            0                       # Per bank write bursts
system.mem_ctrls.dram.perBankWrBursts::0           19                       # Per bank write bursts
system.mem_ctrls.dram.perBankWrBursts::1            1                       # Per bank write bursts
system.mem_ctrls.dram.perBankWrBursts::2           15                       # Per bank write bursts
system.mem_ctrls.dram.perBankWrBursts::3            5                       # Per bank write bursts
system.mem_ctrls.dram.perBankWrBursts::4            3                       # Per bank write bursts
system.mem_ctrls.dram.perBankWrBursts::5            2                       # Per bank write bursts
system.mem_ctrls.dram.perBankWrBursts::6            2                       # Per bank write bursts
system.mem_ctrls.dram.perBankWrBursts::7            6                       # Per bank write bursts
system.mem_ctrls.dram.perBankWrBursts::8           30                       # Per bank write bursts
system.mem_ctrls.dram.perBankWrBursts::9            9                       # Per bank write bursts
system.mem_ctrls.dram.perBankWrBursts::10            0                       # Per bank write bursts
system.mem_ctrls.dram.perBankWrBursts::11           10                       # Per bank write bursts
system.mem_ctrls.dram.perBankWrBursts::12           12                       # Per bank write bursts
system.mem_ctrls.dram.perBankWrBursts::13            0                       # Per bank write bursts
system.mem_ctrls.dram.perBankWrBursts::14            0                       # Per bank write bursts
system.mem_ctrls.dram.perBankWrBursts::15            0                       # Per bank write bursts
system.mem_ctrls.dram.totQLat                 4213000                       # Total ticks spent queuing
system.mem_ctrls.dram.totBusLat               3115000                       # Total ticks spent in databus transfers
system.mem_ctrls.dram.totMemAccLat           15894250                       # Total ticks spent from burst creation until serviced by the DRAM
system.mem_ctrls.dram.avgQLat                 6762.44                       # Average queueing delay per DRAM burst
system.mem_ctrls.dram.avgBusLat               5000.00                       # Average bus latency per DRAM burst
system.mem_ctrls.dram.avgMemAccLat           25512.44                       # Average memory access latency per DRAM burst
system.mem_ctrls.dram.readRowHits                 501                       # Number of row buffer hits during reads
system.mem_ctrls.dram.writeRowHits                 98                       # Number of row buffer hits during writes
system.mem_ctrls.dram.readRowHitRate            80.42                       # Row buffer hit rate for reads
system.mem_ctrls.dram.writeRowHitRate           85.96                       # Row buffer hit rate for writes
system.mem_ctrls.dram.bytesPerActivate::samples          126                       # Bytes accessed per row activation
system.mem_ctrls.dram.bytesPerActivate::mean   347.428571                       # Bytes accessed per row activation
system.mem_ctrls.dram.bytesPerActivate::gmean   230.616413                       # Bytes accessed per row activation
system.mem_ctrls.dram.bytesPerActivate::stdev   314.830937                       # Bytes accessed per row activation
system.mem_ctrls.dram.bytesPerActivate::0-127           28     22.22%     22.22% # Bytes accessed per row activation
system.mem_ctrls.dram.bytesPerActivate::128-255           32     25.40%     47.62% # Bytes accessed per row activation
system.mem_ctrls.dram.bytesPerActivate::256-383           26     20.63%     68.25% # Bytes accessed per row activation
system.mem_ctrls.dram.bytesPerActivate::384-511           10      7.94%     76.19% # Bytes accessed per row activation
system.mem_ctrls.dram.bytesPerActivate::512-639            6      4.76%     80.95% # Bytes accessed per row activation
system.mem_ctrls.dram.bytesPerActivate::640-767            4      3.17%     84.13% # Bytes accessed per row activation
system.mem_ctrls.dram.bytesPerActivate::768-895            3      2.38%     86.51% # Bytes accessed per row activation
system.mem_ctrls.dram.bytesPerActivate::896-1023            3      2.38%     88.89% # Bytes accessed per row activation
system.mem_ctrls.dram.bytesPerActivate::1024-1151           14     11.11%    100.00% # Bytes accessed per row activation
system.mem_ctrls.dram.bytesPerActivate::total          126                       # Bytes accessed per row activation
system.mem_ctrls.dram.bytesRead                 39872                       # Total number of bytes read from DRAM
system.mem_ctrls.dram.bytesWritten               7296                       # Total number of bytes written to DRAM
system.mem_ctrls.dram.avgRdBW               26.686317                       # Average DRAM read bandwidth in MiBytes/s
system.mem_ctrls.dram.avgWrBW                4.883211                       # Average DRAM write bandwidth in MiBytes/s
system.mem_ctrls.dram.peakBW                 12800.00                       # Theoretical peak bandwidth in MiByte/s
system.mem_ctrls.dram.busUtil                    0.25                       # Data bus utilization in percentage
system.mem_ctrls.dram.busUtilRead                0.21                       # Data bus utilization in percentage for reads
system.mem_ctrls.dram.busUtilWrite               0.04                       # Data bus utilization in percentage for writes
system.mem_ctrls.dram.pageHitRate               81.28                       # Row buffer hit rate, read and write combined
system.mem_ctrls.dram.power_state.pwrStateResidencyTicks::UNDEFINED   1494099000                       # Cumulative time (in ticks) in various power states
system.mem_ctrls.dram.rank0.actEnergy          392700                       # Energy for activate commands per rank (pJ)
system.mem_ctrls.dram.rank0.preEnergy          182160                       # Energy for precharge commands per rank (pJ)
system.mem_ctrls.dram.rank0.readEnergy        2063460                       # Energy for read commands per rank (pJ)
system.mem_ctrls.dram.rank0.writeEnergy        276660                       # Energy for write commands per rank (pJ)
system.mem_ctrls.dram.rank0.refreshEnergy 117396240.000000                       # Energy for refresh commands per rank (pJ)
system.mem_ctrls.dram.rank0.actBackEnergy     40412430                       # Energy for active background per rank (pJ)
system.mem_ctrls.dram.rank0.preBackEnergy    539702880                       # Energy for precharge background per rank (pJ)
system.mem_ctrls.dram.rank0.actPowerDownEnergy            0                       # Energy for active power-down per rank (pJ)
system.mem_ctrls.dram.rank0.prePowerDownEnergy            0                       # Energy for precharge power-down per rank (pJ)
system.mem_ctrls.dram.rank0.selfRefreshEnergy            0                       # Energy for self refresh per rank (pJ)
system.mem_ctrls.dram.rank0.totalEnergy     700426530                       # Total energy per rank (pJ)
system.mem_ctrls.dram.rank0.averagePower   468.795261                       # Core power per rank (mW)
system.mem_ctrls.dram.rank0.totalIdleTime            0                       # Total Idle time Per DRAM Rank
system.mem_ctrls.dram.rank0.pwrStateTime::IDLE   1402764500                       # Time in different power states
system.mem_ctrls.dram.rank0.pwrStateTime::REF     49660000                       # Time in different power states
system.mem_ctrls.dram.rank0.pwrStateTime::SREF            0                       # Time in different power states
system.mem_ctrls.dram.rank0.pwrStateTime::PRE_PDN            0                       # Time in different power states
system.mem_ctrls.dram.rank0.pwrStateTime::ACT     41674500                       # Time in different power states
system.mem_ctrls.dram.rank0.pwrStateTime::ACT_PDN            0                       # Time in different power states
system.mem_ctrls.dram.rank1.actEnergy          592620                       # Energy for activate commands per rank (pJ)
system.mem_ctrls.dram.rank1.preEnergy          296010                       # Energy for precharge commands per rank (pJ)
system.mem_ctrls.dram.rank1.readEnergy        2384760                       # Energy for read commands per rank (pJ)
system.mem_ctrls.dram.rank1.writeEnergy        318420                       # Energy for write commands per rank (pJ)
system.mem_ctrls.dram.rank1.refreshEnergy 117396240.000000                       # Energy for refresh commands per rank (pJ)
system.mem_ctrls.dram.rank1.actBackEnergy     42750570                       # Energy for active background per rank (pJ)
system.mem_ctrls.dram.rank1.preBackEnergy    537733920                       # Energy for precharge background per rank (pJ)
system.mem_ctrls.dram.rank1.actPowerDownEnergy            0                       # Energy for active power-down per rank (pJ)
system.mem_ctrls.dram.rank1.prePowerDownEnergy            0                       # Energy for precharge power-down per rank (pJ)
system.mem_ctrls.dram.rank1.selfRefreshEnergy            0                       # Energy for self refresh per rank (pJ)
system.mem_ctrls.dram.rank1.totalEnergy     701472540                       # Total energy per rank (pJ)
system.mem_ctrls.dram.rank1.averagePower   469.495355                       # Core power per rank (mW)
system.mem_ctrls.dram.rank1.totalIdleTime            0                       # Total Idle time Per DRAM Rank
system.mem_ctrls.dram.rank1.pwrStateTime::IDLE   1397637500                       # Time in different power states
system.mem_ctrls.dram.rank1.pwrStateTime::REF     49660000                       # Time in different power states
system.mem_ctrls.dram.rank1.pwrStateTime::SREF            0                       # Time in different power states
system.mem_ctrls.dram.rank1.pwrStateTime::PRE_PDN            0                       # Time in different power states
system.mem_ctrls.dram.rank1.pwrStateTime::ACT     46801500                       # Time in different power states
system.mem_ctrls.dram.rank1.pwrStateTime::ACT_PDN            0                       # Time in different power states
system.mem_ctrls.power_state.pwrStateResidencyTicks::UNDEFINED   1494099000                       # Cumulative time (in ticks) in various power states
system.membus.trans_dist::ReadResp                708                       # Transaction distribution
system.membus.trans_dist::WritebackClean          287                       # Transaction distribution
system.membus.trans_dist::ReadExReq                71                       # Transaction distribution
system.membus.trans_dist::ReadExResp               71                       # Transaction distribution
system.membus.trans_dist::ReadCleanReq            599                       # Transaction distribution
system.membus.trans_dist::ReadSharedReq           109                       # Transaction distribution
system.membus.pkt_count_system.cpu.icache.mem_side_port::system.mem_ctrls.port         1485                       # Packet count per connected requestor and responder (bytes)
system.membus.pkt_count_system.cpu.dcache.mem_side_port::system.mem_ctrls.port          360                       # Packet count per connected requestor and responder (bytes)
system.membus.pkt_count::total                   1845                       # Packet count per connected requestor and responder (bytes)
system.membus.pkt_size_system.cpu.icache.mem_side_port::system.mem_ctrls.port        56704                       # Cumulative packet size per connected requestor and responder (bytes)
system.membus.pkt_size_system.cpu.dcache.mem_side_port::system.mem_ctrls.port        11520                       # Cumulative packet size per connected requestor and responder (bytes)
system.membus.pkt_size::total                   68224                       # Cumulative packet size per connected requestor and responder (bytes)
system.membus.snoops                                0                       # Total snoops (count)
system.membus.snoopTraffic                          0                       # Total snoop traffic (bytes)
system.membus.snoop_fanout::samples               779                       # Request fanout histogram
system.membus.snoop_fanout::mean             0.033376                       # Request fanout histogram
system.membus.snoop_fanout::stdev            0.179732                       # Request fanout histogram
system.membus.snoop_fanout::underflows              0      0.00%      0.00% # Request fanout histogram
system.membus.snoop_fanout::0                     753     96.66%     96.66% # Request fanout histogram
system.membus.snoop_fanout::1                      26      3.34%    100.00% # Request fanout histogram
system.membus.snoop_fanout::2                       0      0.00%    100.00% # Request fanout histogram
system.membus.snoop_fanout::overflows               0      0.00%    100.00% # Request fanout histogram
system.membus.snoop_fanout::min_value               0                       # Request fanout histogram
system.membus.snoop_fanout::max_value               1                       # Request fanout histogram
system.membus.snoop_fanout::total                 779                       # Request fanout histogram
system.membus.power_state.pwrStateResidencyTicks::UNDEFINED   1494099000                       # Cumulative time (in ticks) in various power states
system.membus.reqLayer0.occupancy             2214000                       # Layer occupancy (ticks)
system.membus.reqLayer0.utilization               0.1                       # Layer utilization (%)
system.membus.respLayer1.occupancy            3135250                       # Layer occupancy (ticks)
system.membus.respLayer1.utilization              0.2                       # Layer utilization (%)
system.membus.respLayer2.occupancy             964750                       # Layer occupancy (ticks)
system.membus.respLayer2.utilization              0.1                       # Layer utilization (%)
system.voltage_domain.voltage                       1                       # Voltage in Volts

---------- End Simulation Statistics   ----------
